-------------------------------------------------------
          Amber 14 SANDER                              2014
          -------------------------------------------------------

  [-O]verwriting output

File Assignments:

 Here is the input file:

MD simulation
 &cntrl
   imin = 0, nstlim = 500000, irest = 1, ntx = 5, dt = 0.001,
   ntt = 3, temp0 = 298.0, gamma_ln = 2.0, ig = -1,
   ntp = 1, pres0 = 1.01325, taup = 2.0,
   ntb = 2,
   ioutfm = 1, iwrap = 1,
   ntwe = 10000, ntwx = 10000, ntpr = 10000, ntwr = 50000, ntave = 50000,

   ntc = 2, ntf = 1,
   noshakemask = ':1,2',

   icfe = 1, ifsc = 0, clambda = 0.1, scalpha = 0.5, scbeta = 12.0,
   logdvdl = 1,
   ifmbar = 1, bar_intervall = 1000, bar_l_min = 0.0, bar_l_max = 1.0,
   bar_l_incr = 0.1,
   timask1 = ':1', timask2 = ':2'
 /
 &ewald
 /

Note: ig = -1. Setting random seed to    35234 based on wallclock time in
      microseconds and disabling the synchronization of random numbers
      between tasks to improve performance.

--------------------------------------------------------------------------------
   1.  RESOURCE   USE:
--------------------------------------------------------------------------------

 getting new box info from bottom of inpcrd
 NATOM  =    2121 NTYPES =       6 NBONH =    2117 MBONA  =       2
 NTHETH =      14 MTHETA =       0 NPHIH =       6 MPHIA  =       0
 NHPARM =       0 NPARM  =       0 NNB   =    2844 NRES   =     705
 NBONA  =       2 NTHETA =       0 NPHIA =       0 NUMBND =       5
 NUMANG =       3 NPTRA  =       1 NATYP =       6 NPHB   =       1
 IFBOX  =       1 NMXRS  =       6 IFCAP =       0 NEXTRA =       0
 NCOPY  =       0

     BOX TYPE: RECTILINEAR

--------------------------------------------------------------------------------
   2.  CONTROL  DATA  FOR  THE  RUN
--------------------------------------------------------------------------------

L0

General flags:
     imin    =       0, nmropt  =       0

Nature and format of input:
     ntx     =       5, irest   =       1, ntrx    =       1

Nature and format of output:
     ntxo    =       1, ntpr    =   10000, ntrx    =       1, ntwr    =   50000
     iwrap   =       1, ntwx    =   10000, ntwv    =       0, ntwe    =   10000
     ioutfm  =       1, ntwprt  =       0, idecomp =       0, rbornstat=      0

Potential function:
     ntf     =       1, ntb     =       2, igb     =       0, nsnb    =      25
     ipol    =       0, gbsa    =       0, iesp    =       0
     dielc   =   1.00000, cut     =   8.00000, intdiel =   1.00000

Frozen or restrained atoms:
     ibelly  =       0, ntr     =       0

Molecular dynamics:
     nstlim  =    500000, nscm    =      1000, nrespa  =         1
     t       =   0.00000, dt      =   0.00100, vlimit  =  20.00000

Langevin dynamics temperature regulation:
     ig      =   35234
     temp0   = 298.00000, tempi   =   0.00000, gamma_ln=   2.00000

Pressure regulation:
     ntp     =       1
     pres0   =   1.01325, comp    =  44.60000, taup    =   2.00000

SHAKE:
     ntc     =       2, jfastw  =       0
     tol     =   0.00001

Free energy options:
     icfe    =       1, ifsc    =       0, klambda =       1
     clambda =  0.1000, scalpha =  0.5000, scbeta  = 12.0000
     sceeorder =       2
     dynlmb =  0.0000 logdvdl =       1

FEP MBAR options:
     ifmbar  =       1,  bar_intervall =     1000
     bar_l_min =0.0000,  bar_l_max =1.0000,  bar_l_incr =0.1000

Ewald parameters:
     verbose =       0, ew_type =       0, nbflag  =       1, use_pme =       1
     vdwmeth =       1, eedmeth =       1, netfrc  =       1
     Box X =   28.114   Box Y =   27.734   Box Z =   27.354
     Alpha =   90.000   Beta  =   90.000   Gamma =   90.000
     NFFT1 =   30       NFFT2 =   30       NFFT3 =   30
     Cutoff=    8.000   Tol   =0.100E-04
     Ewald Coefficient =  0.34864
     Interpolation order =    4

     TI Mask 1 :1; matches      6 atoms
     TI Mask 2 :2; matches      6 atoms
     TI region 1:    2115 atoms
     TI region 2:    2115 atoms

    MBAR - lambda values considered:
      11 total:  0.0000 0.1000 0.2000 0.3000 0.4000 0.5000 0.6000 0.7000 0.8000 0.9000 1.0000
    Extra energies will be computed    500 times.
     Checking for mismatched coordinates.
 Noshake mask :1,2; matches      12 atoms.

--------------------------------------------------------------------------------
   3.  ATOMIC COORDINATES AND VELOCITIES
--------------------------------------------------------------------------------

L0
 begin time read from input coords =  1000.000 ps

 Number of triangulated 3-point waters found:      703
   Removing shake constraints from O2    L0    1 -- H6    L0    1
   Removing shake constraints from C1    L0    1 -- H3    L0    1
   Removing shake constraints from C1    L0    1 -- H4    L0    1
   Removing shake constraints from C1    L0    1 -- H5    L0    1
   Removing shake constraints from O2    INT   2 -- H6    INT   2
   Removing shake constraints from C1    INT   2 -- H3    INT   2
   Removing shake constraints from C1    INT   2 -- H4    INT   2
   Removing shake constraints from C1    INT   2 -- H5    INT   2
 Number of shake restraints removed:        8

     Sum of charges for TI region  1 =   0.00000000
     Forcing neutrality...

     Sum of charges for TI region  2 =   0.00000000
     Forcing neutrality...

--------------------------------------------------------------------------------
   4.  RESULTS
 NSTEP =    10000   TIME(PS) =    1010.000  TEMP(K) =   301.24  PRESS =   151.1
 Etot   =     -5475.7844  EKtot   =      1269.0576  EPtot      =     -6744.8420
 BOND   =         3.6597  ANGLE   =         3.0508  DIHED      =         0.7651
 1-4 NB =         0.0000  1-4 EEL =         3.3821  VDWAALS    =      1023.7133
 EELEC  =     -7779.4130  EHBOND  =         0.0000  RESTRAINT  =         0.0000
 EKCMT  =       638.8287  VIRIAL  =       569.0356  VOLUME     =     21398.8075
                                                    Density    =         0.9853
 DV/DL  =         7.5639
 Ewald error estimate:   0.1488E-03
 ------------------------------------------------------------------------------

      A V E R A G E S   O V E R   50000 S T E P S

 NSTEP =    50000   TIME(PS) =    1050.000  TEMP(K) =   297.62  PRESS =     9.2
 Etot   =     -5480.0222  EKtot   =      1253.8421  EPtot      =     -6733.8643
 BOND   =         1.6437  ANGLE   =         1.8016  DIHED      =         0.3077
 1-4 NB =         0.0000  1-4 EEL =         3.4382  VDWAALS    =      1009.7264
 EELEC  =     -7750.7819  EHBOND  =         0.0000  RESTRAINT  =         0.0000
 EKCMT  =       625.6696  VIRIAL  =       621.4229  VOLUME     =     21390.9411
                                                    Density    =         0.9857
 DV/DL  =         8.0803
 Ewald error estimate:   0.2073E-03
 ------------------------------------------------------------------------------

      R M S  F L U C T U A T I O N S

 NSTEP =    50000   TIME(PS) =    1050.000  TEMP(K) =     6.35  PRESS =   388.8
 Etot   =        45.1261  EKtot   =        26.7333  EPtot      =        35.5266
 BOND   =         0.9671  ANGLE   =         1.0203  DIHED      =         0.3043
 1-4 NB =         0.0000  1-4 EEL =         0.1065  VDWAALS    =        37.1457
 EELEC  =        56.1620  EHBOND  =         0.0000  RESTRAINT  =         0.0000
 EKCMT  =        18.8068  VIRIAL  =       178.5529  VOLUME     =        78.3315
                                                    Density    =         0.0036
 DV/DL  =         3.9058
 Ewald error estimate:   0.1553E-03
 ------------------------------------------------------------------------------

      A V E R A G E S   O V E R   50000 S T E P S

 NSTEP =    50000   TIME(PS) =    1050.000  TEMP(K) =   297.62  PRESS =     9.2
 Etot   =     -5480.0222  EKtot   =      1253.8421  EPtot      =     -6733.8643
 BOND   =         1.6437  ANGLE   =         1.8016  DIHED      =         0.3077
 1-4 NB =         0.0000  1-4 EEL =         3.4382  VDWAALS    =      1009.7264
 EELEC  =     -7750.7819  EHBOND  =         0.0000  RESTRAINT  =         0.0000
 EKCMT  =       625.6696  VIRIAL  =       621.4229  VOLUME     =     21390.9411
                                                    Density    =         0.9857
 DV/DL  =         8.0803
 Ewald error estimate:   0.2073E-03
 ------------------------------------------------------------------------------

      R M S  F L U C T U A T I O N S

 NSTEP =    50000   TIME(PS) =    1050.000  TEMP(K) =     6.35  PRESS =   388.8
 Etot   =        45.1261  EKtot   =        26.7333  EPtot      =        35.5266
 BOND   =         0.9671  ANGLE   =         1.0203  DIHED      =         0.3043
 1-4 NB =         0.0000  1-4 EEL =         0.1065  VDWAALS    =        37.1457
 EELEC  =        56.1620  EHBOND  =         0.0000  RESTRAINT  =         0.0000
 EKCMT  =        18.8068  VIRIAL  =       178.5529  VOLUME     =        78.3315
                                                    Density    =         0.0036
 DV/DL  =         3.9058
 Ewald error estimate:   0.1553E-03
 ------------------------------------------------------------------------------

      DV/DL, AVERAGES OVER   50000 STEPS

 NSTEP =    50000   TIME(PS) =    1050.000  TEMP(K) =     6.35  PRESS =     0.0
 Etot   =         0.0000  EKtot   =         0.0000  EPtot      =         8.0803
 BOND   =         0.0000  ANGLE   =         0.0000  DIHED      =         0.0000
 1-4 NB =         0.0000  1-4 EEL =        -3.8203  VDWAALS    =         0.0000
 EELEC  =        11.9006  EHBOND  =         0.0000  RESTRAINT  =         0.0000
 EKCMT  =         0.0000  VIRIAL  =         0.0000  VOLUME     =         0.0000
                                                    Density    =         0.0000
 DV/DL  =         8.0803
 Ewald error estimate:   0.0000E+00
 ------------------------------------------------------------------------------

      A V E R A G E S   O V E R   50000 S T E P S

 NSTEP =   100000   TIME(PS) =    1100.000  TEMP(K) =   297.86  PRESS =    -5.3
 Etot   =     -5477.2661  EKtot   =      1254.8482  EPtot      =     -6732.1143
 BOND   =         1.7169  ANGLE   =         1.7335  DIHED      =         0.3264
 1-4 NB =         0.0000  1-4 EEL =         3.4359  VDWAALS    =      1007.5865
 EELEC  =     -7746.9134  EHBOND  =         0.0000  RESTRAINT  =         0.0000
 EKCMT  =       626.3478  VIRIAL  =       628.7982  VOLUME     =     21397.0629
                                                    Density    =         0.9854
 DV/DL  =         7.7898
 Ewald error estimate:   0.2036E-03
 ------------------------------------------------------------------------------

      R M S  F L U C T U A T I O N S

 NSTEP =   100000   TIME(PS) =    1100.000  TEMP(K) =     6.60  PRESS =   393.1
 Etot   =        45.6073  EKtot   =        27.8017  EPtot      =        35.7969
 BOND   =         1.0974  ANGLE   =         0.9961  DIHED      =         0.3196
 1-4 NB =         0.0000  1-4 EEL =         0.1030  VDWAALS    =        38.4527
 EELEC  =        59.0948  EHBOND  =         0.0000  RESTRAINT  =         0.0000
 EKCMT  =        19.0169  VIRIAL  =       181.2458  VOLUME     =        79.9409
                                                    Density    =         0.0037
 DV/DL  =         3.9862
 Ewald error estimate:   0.1533E-03
 ------------------------------------------------------------------------------

      A V E R A G E S   O V E R   50000 S T E P S

 NSTEP =   100000   TIME(PS) =    1100.000  TEMP(K) =   297.86  PRESS =    -5.3
 Etot   =     -5477.2661  EKtot   =      1254.8482  EPtot      =     -6732.1143
 BOND   =         1.7169  ANGLE   =         1.7335  DIHED      =         0.3264
 1-4 NB =         0.0000  1-4 EEL =         3.4359  VDWAALS    =      1007.5865
 EELEC  =     -7746.9134  EHBOND  =         0.0000  RESTRAINT  =         0.0000
 EKCMT  =       626.3478  VIRIAL  =       628.7982  VOLUME     =     21397.0629
                                                    Density    =         0.9854
 DV/DL  =         7.7898
 Ewald error estimate:   0.2036E-03
 ------------------------------------------------------------------------------

      R M S  F L U C T U A T I O N S

 NSTEP =   100000   TIME(PS) =    1100.000  TEMP(K) =     6.60  PRESS =   393.1
 Etot   =        45.6073  EKtot   =        27.8017  EPtot      =        35.7969
 BOND   =         1.0974  ANGLE   =         0.9961  DIHED      =         0.3196
 1-4 NB =         0.0000  1-4 EEL =         0.1030  VDWAALS    =        38.4527
 EELEC  =        59.0948  EHBOND  =         0.0000  RESTRAINT  =         0.0000
 EKCMT  =        19.0169  VIRIAL  =       181.2458  VOLUME     =        79.9409
                                                    Density    =         0.0037
 DV/DL  =         3.9862
 Ewald error estimate:   0.1533E-03
 ------------------------------------------------------------------------------

      DV/DL, AVERAGES OVER   50000 STEPS

 NSTEP =   100000   TIME(PS) =    1100.000  TEMP(K) =     6.60  PRESS =     0.0
 Etot   =         0.0000  EKtot   =         0.0000  EPtot      =         7.7898
 BOND   =         0.0000  ANGLE   =         0.0000  DIHED      =         0.0000
 1-4 NB =         0.0000  1-4 EEL =        -3.8177  VDWAALS    =         0.0000
 EELEC  =        11.6074  EHBOND  =         0.0000  RESTRAINT  =         0.0000
 EKCMT  =         0.0000  VIRIAL  =         0.0000  VOLUME     =         0.0000
                                                    Density    =         0.0000
 DV/DL  =         7.7898
 Ewald error estimate:   0.0000E+00
 ------------------------------------------------------------------------------

      A V E R A G E S   O V E R   50000 S T E P S

 NSTEP =   500000   TIME(PS) =    1500.000  TEMP(K) =   297.56  PRESS =     6.8
 Etot   =     -5483.1588  EKtot   =      1253.5721  EPtot      =     -6736.7310
 BOND   =         1.7265  ANGLE   =         1.8500  DIHED      =         0.2978
 1-4 NB =         0.0000  1-4 EEL =         3.4392  VDWAALS    =      1011.8389
 EELEC  =     -7755.8834  EHBOND  =         0.0000  RESTRAINT  =         0.0000
 EKCMT  =       625.9102  VIRIAL  =       622.7679  VOLUME     =     21414.7028
                                                    Density    =         0.9846
 DV/DL  =         7.6370
 Ewald error estimate:   0.2032E-03
 ------------------------------------------------------------------------------

      R M S  F L U C T U A T I O N S

 NSTEP =   500000   TIME(PS) =    1500.000  TEMP(K) =     6.43  PRESS =   395.6
 Etot   =        42.9141  EKtot   =        27.0874  EPtot      =        35.5702
 BOND   =         1.0672  ANGLE   =         1.0886  DIHED      =         0.3080
 1-4 NB =         0.0000  1-4 EEL =         0.1010  VDWAALS    =        38.5314
 EELEC  =        57.9471  EHBOND  =         0.0000  RESTRAINT  =         0.0000
 EKCMT  =        20.0061  VIRIAL  =       182.3783  VOLUME     =        64.7295
                                                    Density    =         0.0030
 DV/DL  =         4.1761
 Ewald error estimate:   0.1499E-03
 ------------------------------------------------------------------------------

      A V E R A G E S   O V E R   50000 S T E P S

 NSTEP =   500000   TIME(PS) =    1500.000  TEMP(K) =   297.56  PRESS =     6.8
 Etot   =     -5483.1588  EKtot   =      1253.5721  EPtot      =     -6736.7310
 BOND   =         1.7265  ANGLE   =         1.8500  DIHED      =         0.2978
 1-4 NB =         0.0000  1-4 EEL =         3.4392  VDWAALS    =      1011.8389
 EELEC  =     -7755.8834  EHBOND  =         0.0000  RESTRAINT  =         0.0000
 EKCMT  =       625.9102  VIRIAL  =       622.7679  VOLUME     =     21414.7028
                                                    Density    =         0.9846
 DV/DL  =         7.6370
 Ewald error estimate:   0.2032E-03
 ------------------------------------------------------------------------------

      R M S  F L U C T U A T I O N S

 NSTEP =   500000   TIME(PS) =    1500.000  TEMP(K) =     6.43  PRESS =   395.6
 Etot   =        42.9141  EKtot   =        27.0874  EPtot      =        35.5702
 BOND   =         1.0672  ANGLE   =         1.0886  DIHED      =         0.3080
 1-4 NB =         0.0000  1-4 EEL =         0.1010  VDWAALS    =        38.5314
 EELEC  =        57.9471  EHBOND  =         0.0000  RESTRAINT  =         0.0000
 EKCMT  =        20.0061  VIRIAL  =       182.3783  VOLUME     =        64.7295
                                                    Density    =         0.0030
 DV/DL  =         4.1761
 Ewald error estimate:   0.1499E-03
 ------------------------------------------------------------------------------

      DV/DL, AVERAGES OVER   50000 STEPS

 NSTEP =   500000   TIME(PS) =    1500.000  TEMP(K) =     6.43  PRESS =     0.0
 Etot   =         0.0000  EKtot   =         0.0000  EPtot      =         7.6370
 BOND   =         0.0000  ANGLE   =         0.0000  DIHED      =         0.0000
 1-4 NB =         0.0000  1-4 EEL =        -3.8213  VDWAALS    =         0.0000
 EELEC  =        11.4584  EHBOND  =         0.0000  RESTRAINT  =         0.0000
 EKCMT  =         0.0000  VIRIAL  =         0.0000  VOLUME     =         0.0000
                                                    Density    =         0.0000
 DV/DL  =         7.6370
 Ewald error estimate:   0.0000E+00
 ------------------------------------------------------------------------------

      A V E R A G E S   O V E R  500000 S T E P S

 NSTEP =   500000   TIME(PS) =    1500.000  TEMP(K) =   297.84  PRESS =     2.1
 Etot   =     -5482.0549  EKtot   =      1254.7541  EPtot      =     -6736.8090
 BOND   =         1.7740  ANGLE   =         1.8222  DIHED      =         0.3039
 1-4 NB =         0.0000  1-4 EEL =         3.4367  VDWAALS    =      1009.7874
 EELEC  =     -7753.9334  EHBOND  =         0.0000  RESTRAINT  =         0.0000
 EKCMT  =       625.8566  VIRIAL  =       624.9082  VOLUME     =     21382.6299
                                                    Density    =         0.9861
 DV/DL  =         8.2106
 Ewald error estimate:   0.2063E-03
 ------------------------------------------------------------------------------

      R M S  F L U C T U A T I O N S

 NSTEP =   500000   TIME(PS) =    1500.000  TEMP(K) =     6.43  PRESS =   385.2
 Etot   =        47.9145  EKtot   =        27.0815  EPtot      =        38.6891
 BOND   =         1.0948  ANGLE   =         1.0461  DIHED      =         0.3058
 1-4 NB =         0.0000  1-4 EEL =         0.1051  VDWAALS    =        37.6867
 EELEC  =        60.5277  EHBOND  =         0.0000  RESTRAINT  =         0.0000
 EKCMT  =        19.2110  VIRIAL  =       177.5510  VOLUME     =        90.6866
                                                    Density    =         0.0042
 DV/DL  =         3.9733
 Ewald error estimate:   0.1554E-03
 ------------------------------------------------------------------------------

      A V E R A G E S   O V E R  500000 S T E P S

 NSTEP =   500000   TIME(PS) =    1500.000  TEMP(K) =   297.84  PRESS =     2.1
 Etot   =     -5482.0549  EKtot   =      1254.7541  EPtot      =     -6736.8090
 BOND   =         1.7740  ANGLE   =         1.8222  DIHED      =         0.3039
 1-4 NB =         0.0000  1-4 EEL =         3.4367  VDWAALS    =      1009.7874
 EELEC  =     -7753.9334  EHBOND  =         0.0000  RESTRAINT  =         0.0000
 EKCMT  =       625.8566  VIRIAL  =       624.9082  VOLUME     =     21382.6299
                                                    Density    =         0.9861
 DV/DL  =         8.2106
 Ewald error estimate:   0.2063E-03
 ------------------------------------------------------------------------------

      R M S  F L U C T U A T I O N S

 NSTEP =   500000   TIME(PS) =    1500.000  TEMP(K) =     6.43  PRESS =   385.2
 Etot   =        47.9145  EKtot   =        27.0815  EPtot      =        38.6891
 BOND   =         1.0948  ANGLE   =         1.0461  DIHED      =         0.3058
 1-4 NB =         0.0000  1-4 EEL =         0.1051  VDWAALS    =        37.6867
 EELEC  =        60.5277  EHBOND  =         0.0000  RESTRAINT  =         0.0000
 EKCMT  =        19.2110  VIRIAL  =       177.5510  VOLUME     =        90.6866
                                                    Density    =         0.0042
 DV/DL  =         3.9733
 Ewald error estimate:   0.1554E-03
 ------------------------------------------------------------------------------

      DV/DL, AVERAGES OVER  500000 STEPS

 NSTEP =   500000   TIME(PS) =    1500.000  TEMP(K) =     6.43  PRESS =     0.0
 Etot   =         0.0000  EKtot   =         0.0000  EPtot      =         8.2106
 BOND   =         0.0000  ANGLE   =         0.0000  DIHED      =         0.0000
 1-4 NB =         0.0000  1-4 EEL =        -3.8186  VDWAALS    =         0.0000
 EELEC  =        12.0292  EHBOND  =         0.0000  RESTRAINT  =         0.0000
 EKCMT  =         0.0000  VIRIAL  =         0.0000  VOLUME     =         0.0000
                                                    Density    =         0.0000
 DV/DL  =         8.2106
 Ewald error estimate:   0.0000E+00
 ------------------------------------------------------------------------------
