-------------------------------------------------------
          Amber 14 SANDER                              2014
          -------------------------------------------------------

  [-O]verwriting output

File Assignments:

 Here is the input file:

MD simulation
 &cntrl
   imin = 0, nstlim = 500000, irest = 1, ntx = 5, dt = 0.001,
   ntt = 3, temp0 = 298.0, gamma_ln = 2.0, ig = -1,
   ntp = 1, pres0 = 1.01325, taup = 2.0,
   ntb = 2,
   ioutfm = 1, iwrap = 1,
   ntwe = 10000, ntwx = 10000, ntpr = 10000, ntwr = 50000, ntave = 50000,

   ntc = 2, ntf = 1,
   noshakemask = ':1,2',

   icfe = 1, ifsc = 0, clambda = 0.1, scalpha = 0.5, scbeta = 12.0,
   logdvdl = 1,
   ifmbar = 1, bar_intervall = 1000, bar_l_min = 0.0, bar_l_max = 1.0,
   bar_l_incr = 0.1,
   timask1 = ':1', timask2 = ':2'
 /
 &ewald
 /

Note: ig = -1. Setting random seed to   966574 based on wallclock time in
      microseconds and disabling the synchronization of random numbers
      between tasks to improve performance.

--------------------------------------------------------------------------------
   1.  RESOURCE   USE:
--------------------------------------------------------------------------------

 getting new box info from bottom of inpcrd
 NATOM  =    2121 NTYPES =       6 NBONH =    2117 MBONA  =       2
 NTHETH =      14 MTHETA =       0 NPHIH =       6 MPHIA  =       0
 NHPARM =       0 NPARM  =       0 NNB   =    2844 NRES   =     705
 NBONA  =       2 NTHETA =       0 NPHIA =       0 NUMBND =       5
 NUMANG =       3 NPTRA  =       1 NATYP =       6 NPHB   =       1
 IFBOX  =       1 NMXRS  =       6 IFCAP =       0 NEXTRA =       0
 NCOPY  =       0

     BOX TYPE: RECTILINEAR

--------------------------------------------------------------------------------
   2.  CONTROL  DATA  FOR  THE  RUN
--------------------------------------------------------------------------------

L0

General flags:
     imin    =       0, nmropt  =       0

Nature and format of input:
     ntx     =       5, irest   =       1, ntrx    =       1

Nature and format of output:
     ntxo    =       1, ntpr    =   10000, ntrx    =       1, ntwr    =   50000
     iwrap   =       1, ntwx    =   10000, ntwv    =       0, ntwe    =   10000
     ioutfm  =       1, ntwprt  =       0, idecomp =       0, rbornstat=      0

Potential function:
     ntf     =       1, ntb     =       2, igb     =       0, nsnb    =      25
     ipol    =       0, gbsa    =       0, iesp    =       0
     dielc   =   1.00000, cut     =   8.00000, intdiel =   1.00000

Frozen or restrained atoms:
     ibelly  =       0, ntr     =       0

Molecular dynamics:
     nstlim  =    500000, nscm    =      1000, nrespa  =         1
     t       =   0.00000, dt      =   0.00100, vlimit  =  20.00000

Langevin dynamics temperature regulation:
     ig      =  966574
     temp0   = 298.00000, tempi   =   0.00000, gamma_ln=   2.00000

Pressure regulation:
     ntp     =       1
     pres0   =   1.01325, comp    =  44.60000, taup    =   2.00000

SHAKE:
     ntc     =       2, jfastw  =       0
     tol     =   0.00001

Free energy options:
     icfe    =       1, ifsc    =       0, klambda =       1
     clambda =  0.1000, scalpha =  0.5000, scbeta  = 12.0000
     sceeorder =       2
     dynlmb =  0.0000 logdvdl =       1

FEP MBAR options:
     ifmbar  =       1,  bar_intervall =     1000
     bar_l_min =0.0000,  bar_l_max =1.0000,  bar_l_incr =0.1000

Ewald parameters:
     verbose =       0, ew_type =       0, nbflag  =       1, use_pme =       1
     vdwmeth =       1, eedmeth =       1, netfrc  =       1
     Box X =   28.141   Box Y =   27.760   Box Z =   27.380
     Alpha =   90.000   Beta  =   90.000   Gamma =   90.000
     NFFT1 =   30       NFFT2 =   30       NFFT3 =   30
     Cutoff=    8.000   Tol   =0.100E-04
     Ewald Coefficient =  0.34864
     Interpolation order =    4

     TI Mask 1 :1; matches      6 atoms
     TI Mask 2 :2; matches      6 atoms
     TI region 1:    2115 atoms
     TI region 2:    2115 atoms

    MBAR - lambda values considered:
      11 total:  0.0000 0.1000 0.2000 0.3000 0.4000 0.5000 0.6000 0.7000 0.8000 0.9000 1.0000
    Extra energies will be computed    500 times.
     Checking for mismatched coordinates.
 Noshake mask :1,2; matches      12 atoms.

--------------------------------------------------------------------------------
   3.  ATOMIC COORDINATES AND VELOCITIES
--------------------------------------------------------------------------------

L0
 begin time read from input coords =   500.000 ps

 Number of triangulated 3-point waters found:      703
   Removing shake constraints from O2    L0    1 -- H6    L0    1
   Removing shake constraints from C1    L0    1 -- H3    L0    1
   Removing shake constraints from C1    L0    1 -- H4    L0    1
   Removing shake constraints from C1    L0    1 -- H5    L0    1
   Removing shake constraints from O2    INT   2 -- H6    INT   2
   Removing shake constraints from C1    INT   2 -- H3    INT   2
   Removing shake constraints from C1    INT   2 -- H4    INT   2
   Removing shake constraints from C1    INT   2 -- H5    INT   2
 Number of shake restraints removed:        8

     Sum of charges for TI region  1 =   0.00000000
     Forcing neutrality...

     Sum of charges for TI region  2 =   0.00000000
     Forcing neutrality...

--------------------------------------------------------------------------------
   4.  RESULTS
 NSTEP =    10000   TIME(PS) =     510.000  TEMP(K) =   285.78  PRESS =  -279.2
 Etot   =     -5497.4174  EKtot   =      1203.9276  EPtot      =     -6701.3450
 BOND   =         1.7002  ANGLE   =         1.0641  DIHED      =         0.3852
 1-4 NB =         0.0000  1-4 EEL =         3.3161  VDWAALS    =       977.9640
 EELEC  =     -7685.7746  EHBOND  =         0.0000  RESTRAINT  =         0.0000
 EKCMT  =       605.7577  VIRIAL  =       735.4434  VOLUME     =     21514.9765
                                                    Density    =         0.9800
 DV/DL  =        21.0216
 Ewald error estimate:   0.2362E-03
 ------------------------------------------------------------------------------

      A V E R A G E S   O V E R   50000 S T E P S

 NSTEP =    50000   TIME(PS) =     550.000  TEMP(K) =   297.62  PRESS =     6.9
 Etot   =     -5482.4836  EKtot   =      1253.8284  EPtot      =     -6736.3121
 BOND   =         1.7388  ANGLE   =         1.7910  DIHED      =         0.2878
 1-4 NB =         0.0000  1-4 EEL =         3.4346  VDWAALS    =      1009.9829
 EELEC  =     -7753.5472  EHBOND  =         0.0000  RESTRAINT  =         0.0000
 EKCMT  =       624.5819  VIRIAL  =       621.3849  VOLUME     =     21393.7940
                                                    Density    =         0.9856
 DV/DL  =         7.8747
 Ewald error estimate:   0.2010E-03
 ------------------------------------------------------------------------------

      R M S  F L U C T U A T I O N S

 NSTEP =    50000   TIME(PS) =     550.000  TEMP(K) =     6.41  PRESS =   397.4
 Etot   =        41.9161  EKtot   =        27.0017  EPtot      =        34.7814
 BOND   =         1.0994  ANGLE   =         0.9840  DIHED      =         0.3027
 1-4 NB =         0.0000  1-4 EEL =         0.1044  VDWAALS    =        38.7137
 EELEC  =        56.9076  EHBOND  =         0.0000  RESTRAINT  =         0.0000
 EKCMT  =        18.7862  VIRIAL  =       184.6396  VOLUME     =        77.8159
                                                    Density    =         0.0036
 DV/DL  =         3.9396
 Ewald error estimate:   0.1508E-03
 ------------------------------------------------------------------------------

      A V E R A G E S   O V E R   50000 S T E P S

 NSTEP =    50000   TIME(PS) =     550.000  TEMP(K) =   297.62  PRESS =     6.9
 Etot   =     -5482.4836  EKtot   =      1253.8284  EPtot      =     -6736.3121
 BOND   =         1.7388  ANGLE   =         1.7910  DIHED      =         0.2878
 1-4 NB =         0.0000  1-4 EEL =         3.4346  VDWAALS    =      1009.9829
 EELEC  =     -7753.5472  EHBOND  =         0.0000  RESTRAINT  =         0.0000
 EKCMT  =       624.5819  VIRIAL  =       621.3849  VOLUME     =     21393.7940
                                                    Density    =         0.9856
 DV/DL  =         7.8747
 Ewald error estimate:   0.2010E-03
 ------------------------------------------------------------------------------

      R M S  F L U C T U A T I O N S

 NSTEP =    50000   TIME(PS) =     550.000  TEMP(K) =     6.41  PRESS =   397.4
 Etot   =        41.9161  EKtot   =        27.0017  EPtot      =        34.7814
 BOND   =         1.0994  ANGLE   =         0.9840  DIHED      =         0.3027
 1-4 NB =         0.0000  1-4 EEL =         0.1044  VDWAALS    =        38.7137
 EELEC  =        56.9076  EHBOND  =         0.0000  RESTRAINT  =         0.0000
 EKCMT  =        18.7862  VIRIAL  =       184.6396  VOLUME     =        77.8159
                                                    Density    =         0.0036
 DV/DL  =         3.9396
 Ewald error estimate:   0.1508E-03
 ------------------------------------------------------------------------------

      DV/DL, AVERAGES OVER   50000 STEPS

 NSTEP =    50000   TIME(PS) =     550.000  TEMP(K) =     6.41  PRESS =     0.0
 Etot   =         0.0000  EKtot   =         0.0000  EPtot      =         7.8747
 BOND   =         0.0000  ANGLE   =         0.0000  DIHED      =         0.0000
 1-4 NB =         0.0000  1-4 EEL =        -3.8162  VDWAALS    =         0.0000
 EELEC  =        11.6910  EHBOND  =         0.0000  RESTRAINT  =         0.0000
 EKCMT  =         0.0000  VIRIAL  =         0.0000  VOLUME     =         0.0000
                                                    Density    =         0.0000
 DV/DL  =         7.8747
 Ewald error estimate:   0.0000E+00
 ------------------------------------------------------------------------------

      A V E R A G E S   O V E R   50000 S T E P S

 NSTEP =   100000   TIME(PS) =     600.000  TEMP(K) =   297.43  PRESS =     3.0
 Etot   =     -5487.0540  EKtot   =      1253.0099  EPtot      =     -6740.0639
 BOND   =         1.7065  ANGLE   =         1.8987  DIHED      =         0.2952
 1-4 NB =         0.0000  1-4 EEL =         3.4374  VDWAALS    =      1014.1564
 EELEC  =     -7761.5580  EHBOND  =         0.0000  RESTRAINT  =         0.0000
 EKCMT  =       625.3440  VIRIAL  =       623.9451  VOLUME     =     21426.6574
                                                    Density    =         0.9841
 DV/DL  =         7.6840
 Ewald error estimate:   0.2070E-03
 ------------------------------------------------------------------------------

      R M S  F L U C T U A T I O N S

 NSTEP =   100000   TIME(PS) =     600.000  TEMP(K) =     6.44  PRESS =   377.0
 Etot   =        48.0416  EKtot   =        27.1215  EPtot      =        38.7560
 BOND   =         1.0590  ANGLE   =         1.0246  DIHED      =         0.3017
 1-4 NB =         0.0000  1-4 EEL =         0.0991  VDWAALS    =        36.8053
 EELEC  =        60.4651  EHBOND  =         0.0000  RESTRAINT  =         0.0000
 EKCMT  =        18.8997  VIRIAL  =       173.6393  VOLUME     =        70.0380
                                                    Density    =         0.0032
 DV/DL  =         3.9388
 Ewald error estimate:   0.1584E-03
 ------------------------------------------------------------------------------

      A V E R A G E S   O V E R   50000 S T E P S

 NSTEP =   100000   TIME(PS) =     600.000  TEMP(K) =   297.43  PRESS =     3.0
 Etot   =     -5487.0540  EKtot   =      1253.0099  EPtot      =     -6740.0639
 BOND   =         1.7065  ANGLE   =         1.8987  DIHED      =         0.2952
 1-4 NB =         0.0000  1-4 EEL =         3.4374  VDWAALS    =      1014.1564
 EELEC  =     -7761.5580  EHBOND  =         0.0000  RESTRAINT  =         0.0000
 EKCMT  =       625.3440  VIRIAL  =       623.9451  VOLUME     =     21426.6574
                                                    Density    =         0.9841
 DV/DL  =         7.6840
 Ewald error estimate:   0.2070E-03
 ------------------------------------------------------------------------------

      R M S  F L U C T U A T I O N S

 NSTEP =   100000   TIME(PS) =     600.000  TEMP(K) =     6.44  PRESS =   377.0
 Etot   =        48.0416  EKtot   =        27.1215  EPtot      =        38.7560
 BOND   =         1.0590  ANGLE   =         1.0246  DIHED      =         0.3017
 1-4 NB =         0.0000  1-4 EEL =         0.0991  VDWAALS    =        36.8053
 EELEC  =        60.4651  EHBOND  =         0.0000  RESTRAINT  =         0.0000
 EKCMT  =        18.8997  VIRIAL  =       173.6393  VOLUME     =        70.0380
                                                    Density    =         0.0032
 DV/DL  =         3.9388
 Ewald error estimate:   0.1584E-03
 ------------------------------------------------------------------------------

      DV/DL, AVERAGES OVER   50000 STEPS

 NSTEP =   100000   TIME(PS) =     600.000  TEMP(K) =     6.44  PRESS =     0.0
 Etot   =         0.0000  EKtot   =         0.0000  EPtot      =         7.6840
 BOND   =         0.0000  ANGLE   =         0.0000  DIHED      =         0.0000
 1-4 NB =         0.0000  1-4 EEL =        -3.8193  VDWAALS    =         0.0000
 EELEC  =        11.5033  EHBOND  =         0.0000  RESTRAINT  =         0.0000
 EKCMT  =         0.0000  VIRIAL  =         0.0000  VOLUME     =         0.0000
                                                    Density    =         0.0000
 DV/DL  =         7.6840
 Ewald error estimate:   0.0000E+00
 ------------------------------------------------------------------------------

      A V E R A G E S   O V E R   50000 S T E P S

 NSTEP =   500000   TIME(PS) =    1000.000  TEMP(K) =   296.89  PRESS =    -4.0
 Etot   =     -5489.3515  EKtot   =      1250.7643  EPtot      =     -6740.1159
 BOND   =         1.5282  ANGLE   =         1.6567  DIHED      =         0.2968
 1-4 NB =         0.0000  1-4 EEL =         3.4351  VDWAALS    =      1012.2634
 EELEC  =     -7759.2962  EHBOND  =         0.0000  RESTRAINT  =         0.0000
 EKCMT  =       623.8860  VIRIAL  =       625.7113  VOLUME     =     21395.2778
                                                    Density    =         0.9855
 DV/DL  =         8.1234
 Ewald error estimate:   0.2038E-03
 ------------------------------------------------------------------------------

      R M S  F L U C T U A T I O N S

 NSTEP =   500000   TIME(PS) =    1000.000  TEMP(K) =     6.30  PRESS =   381.8
 Etot   =        46.0572  EKtot   =        26.5212  EPtot      =        37.0938
 BOND   =         0.9670  ANGLE   =         0.9437  DIHED      =         0.3051
 1-4 NB =         0.0000  1-4 EEL =         0.1011  VDWAALS    =        37.8323
 EELEC  =        59.4835  EHBOND  =         0.0000  RESTRAINT  =         0.0000
 EKCMT  =        18.8463  VIRIAL  =       176.6735  VOLUME     =        79.7942
                                                    Density    =         0.0037
 DV/DL  =         3.9397
 Ewald error estimate:   0.1560E-03
 ------------------------------------------------------------------------------

      A V E R A G E S   O V E R   50000 S T E P S

 NSTEP =   500000   TIME(PS) =    1000.000  TEMP(K) =   296.89  PRESS =    -4.0
 Etot   =     -5489.3515  EKtot   =      1250.7643  EPtot      =     -6740.1159
 BOND   =         1.5282  ANGLE   =         1.6567  DIHED      =         0.2968
 1-4 NB =         0.0000  1-4 EEL =         3.4351  VDWAALS    =      1012.2634
 EELEC  =     -7759.2962  EHBOND  =         0.0000  RESTRAINT  =         0.0000
 EKCMT  =       623.8860  VIRIAL  =       625.7113  VOLUME     =     21395.2778
                                                    Density    =         0.9855
 DV/DL  =         8.1234
 Ewald error estimate:   0.2038E-03
 ------------------------------------------------------------------------------

      R M S  F L U C T U A T I O N S

 NSTEP =   500000   TIME(PS) =    1000.000  TEMP(K) =     6.30  PRESS =   381.8
 Etot   =        46.0572  EKtot   =        26.5212  EPtot      =        37.0938
 BOND   =         0.9670  ANGLE   =         0.9437  DIHED      =         0.3051
 1-4 NB =         0.0000  1-4 EEL =         0.1011  VDWAALS    =        37.8323
 EELEC  =        59.4835  EHBOND  =         0.0000  RESTRAINT  =         0.0000
 EKCMT  =        18.8463  VIRIAL  =       176.6735  VOLUME     =        79.7942
                                                    Density    =         0.0037
 DV/DL  =         3.9397
 Ewald error estimate:   0.1560E-03
 ------------------------------------------------------------------------------

      DV/DL, AVERAGES OVER   50000 STEPS

 NSTEP =   500000   TIME(PS) =    1000.000  TEMP(K) =     6.30  PRESS =     0.0
 Etot   =         0.0000  EKtot   =         0.0000  EPtot      =         8.1234
 BOND   =         0.0000  ANGLE   =         0.0000  DIHED      =         0.0000
 1-4 NB =         0.0000  1-4 EEL =        -3.8168  VDWAALS    =         0.0000
 EELEC  =        11.9403  EHBOND  =         0.0000  RESTRAINT  =         0.0000
 EKCMT  =         0.0000  VIRIAL  =         0.0000  VOLUME     =         0.0000
                                                    Density    =         0.0000
 DV/DL  =         8.1234
 Ewald error estimate:   0.0000E+00
 ------------------------------------------------------------------------------

      A V E R A G E S   O V E R  500000 S T E P S

 NSTEP =   500000   TIME(PS) =    1000.000  TEMP(K) =   297.87  PRESS =     0.8
 Etot   =     -5480.3991  EKtot   =      1254.8664  EPtot      =     -6735.2655
 BOND   =         1.6869  ANGLE   =         1.7725  DIHED      =         0.3009
 1-4 NB =         0.0000  1-4 EEL =         3.4361  VDWAALS    =      1010.0198
 EELEC  =     -7752.4817  EHBOND  =         0.0000  RESTRAINT  =         0.0000
 EKCMT  =       625.9800  VIRIAL  =       625.6306  VOLUME     =     21395.4516
                                                    Density    =         0.9855
 DV/DL  =         8.0492
 Ewald error estimate:   0.2065E-03
 ------------------------------------------------------------------------------

      R M S  F L U C T U A T I O N S

 NSTEP =   500000   TIME(PS) =    1000.000  TEMP(K) =     6.50  PRESS =   388.2
 Etot   =        49.1380  EKtot   =        27.3896  EPtot      =        39.3473
 BOND   =         1.0706  ANGLE   =         1.0184  DIHED      =         0.3049
 1-4 NB =         0.0000  1-4 EEL =         0.1030  VDWAALS    =        37.7987
 EELEC  =        61.0219  EHBOND  =         0.0000  RESTRAINT  =         0.0000
 EKCMT  =        19.2788  VIRIAL  =       178.9846  VOLUME     =        87.4786
                                                    Density    =         0.0040
 DV/DL  =         3.9240
 Ewald error estimate:   0.1561E-03
 ------------------------------------------------------------------------------

      A V E R A G E S   O V E R  500000 S T E P S

 NSTEP =   500000   TIME(PS) =    1000.000  TEMP(K) =   297.87  PRESS =     0.8
 Etot   =     -5480.3991  EKtot   =      1254.8664  EPtot      =     -6735.2655
 BOND   =         1.6869  ANGLE   =         1.7725  DIHED      =         0.3009
 1-4 NB =         0.0000  1-4 EEL =         3.4361  VDWAALS    =      1010.0198
 EELEC  =     -7752.4817  EHBOND  =         0.0000  RESTRAINT  =         0.0000
 EKCMT  =       625.9800  VIRIAL  =       625.6306  VOLUME     =     21395.4516
                                                    Density    =         0.9855
 DV/DL  =         8.0492
 Ewald error estimate:   0.2065E-03
 ------------------------------------------------------------------------------

      R M S  F L U C T U A T I O N S

 NSTEP =   500000   TIME(PS) =    1000.000  TEMP(K) =     6.50  PRESS =   388.2
 Etot   =        49.1380  EKtot   =        27.3896  EPtot      =        39.3473
 BOND   =         1.0706  ANGLE   =         1.0184  DIHED      =         0.3049
 1-4 NB =         0.0000  1-4 EEL =         0.1030  VDWAALS    =        37.7987
 EELEC  =        61.0219  EHBOND  =         0.0000  RESTRAINT  =         0.0000
 EKCMT  =        19.2788  VIRIAL  =       178.9846  VOLUME     =        87.4786
                                                    Density    =         0.0040
 DV/DL  =         3.9240
 Ewald error estimate:   0.1561E-03
 ------------------------------------------------------------------------------

      DV/DL, AVERAGES OVER  500000 STEPS

 NSTEP =   500000   TIME(PS) =    1000.000  TEMP(K) =     6.50  PRESS =     0.0
 Etot   =         0.0000  EKtot   =         0.0000  EPtot      =         8.0492
 BOND   =         0.0000  ANGLE   =         0.0000  DIHED      =         0.0000
 1-4 NB =         0.0000  1-4 EEL =        -3.8179  VDWAALS    =         0.0000
 EELEC  =        11.8671  EHBOND  =         0.0000  RESTRAINT  =         0.0000
 EKCMT  =         0.0000  VIRIAL  =         0.0000  VOLUME     =         0.0000
                                                    Density    =         0.0000
 DV/DL  =         8.0492
 Ewald error estimate:   0.0000E+00
 ------------------------------------------------------------------------------
