-------------------------------------------------------
          Amber 14 SANDER                              2014
          -------------------------------------------------------

  [-O]verwriting output

File Assignments:

 Here is the input file:

MD simulation
 &cntrl
   imin = 0, nstlim = 500000, irest = 1, ntx = 5, dt = 0.001,
   ntt = 3, temp0 = 298.0, gamma_ln = 2.0, ig = -1,
   ntp = 1, pres0 = 1.01325, taup = 2.0,
   ntb = 2,
   ioutfm = 1, iwrap = 1,
   ntwe = 10000, ntwx = 10000, ntpr = 10000, ntwr = 50000, ntave = 50000,

   ntc = 2, ntf = 1,
   noshakemask = ':1,2',

   icfe = 1, ifsc = 0, clambda = 0.4, scalpha = 0.5, scbeta = 12.0,
   logdvdl = 1,
   ifmbar = 1, bar_intervall = 1000, bar_l_min = 0.0, bar_l_max = 1.0,
   bar_l_incr = 0.1,
   timask1 = ':1', timask2 = ':2'
 /
 &ewald
 /

Note: ig = -1. Setting random seed to   310620 based on wallclock time in
      microseconds and disabling the synchronization of random numbers
      between tasks to improve performance.

--------------------------------------------------------------------------------
   1.  RESOURCE   USE:
--------------------------------------------------------------------------------

 getting new box info from bottom of inpcrd
 NATOM  =    2121 NTYPES =       6 NBONH =    2117 MBONA  =       2
 NTHETH =      14 MTHETA =       0 NPHIH =       6 MPHIA  =       0
 NHPARM =       0 NPARM  =       0 NNB   =    2844 NRES   =     705
 NBONA  =       2 NTHETA =       0 NPHIA =       0 NUMBND =       5
 NUMANG =       3 NPTRA  =       1 NATYP =       6 NPHB   =       1
 IFBOX  =       1 NMXRS  =       6 IFCAP =       0 NEXTRA =       0
 NCOPY  =       0

     BOX TYPE: RECTILINEAR

--------------------------------------------------------------------------------
   2.  CONTROL  DATA  FOR  THE  RUN
--------------------------------------------------------------------------------

L0

General flags:
     imin    =       0, nmropt  =       0

Nature and format of input:
     ntx     =       5, irest   =       1, ntrx    =       1

Nature and format of output:
     ntxo    =       1, ntpr    =   10000, ntrx    =       1, ntwr    =   50000
     iwrap   =       1, ntwx    =   10000, ntwv    =       0, ntwe    =   10000
     ioutfm  =       1, ntwprt  =       0, idecomp =       0, rbornstat=      0

Potential function:
     ntf     =       1, ntb     =       2, igb     =       0, nsnb    =      25
     ipol    =       0, gbsa    =       0, iesp    =       0
     dielc   =   1.00000, cut     =   8.00000, intdiel =   1.00000

Frozen or restrained atoms:
     ibelly  =       0, ntr     =       0

Molecular dynamics:
     nstlim  =    500000, nscm    =      1000, nrespa  =         1
     t       =   0.00000, dt      =   0.00100, vlimit  =  20.00000

Langevin dynamics temperature regulation:
     ig      =  310620
     temp0   = 298.00000, tempi   =   0.00000, gamma_ln=   2.00000

Pressure regulation:
     ntp     =       1
     pres0   =   1.01325, comp    =  44.60000, taup    =   2.00000

SHAKE:
     ntc     =       2, jfastw  =       0
     tol     =   0.00001

Free energy options:
     icfe    =       1, ifsc    =       0, klambda =       1
     clambda =  0.4000, scalpha =  0.5000, scbeta  = 12.0000
     sceeorder =       2
     dynlmb =  0.0000 logdvdl =       1

FEP MBAR options:
     ifmbar  =       1,  bar_intervall =     1000
     bar_l_min =0.0000,  bar_l_max =1.0000,  bar_l_incr =0.1000

Ewald parameters:
     verbose =       0, ew_type =       0, nbflag  =       1, use_pme =       1
     vdwmeth =       1, eedmeth =       1, netfrc  =       1
     Box X =   28.076   Box Y =   27.697   Box Z =   27.317
     Alpha =   90.000   Beta  =   90.000   Gamma =   90.000
     NFFT1 =   30       NFFT2 =   30       NFFT3 =   30
     Cutoff=    8.000   Tol   =0.100E-04
     Ewald Coefficient =  0.34864
     Interpolation order =    4

     TI Mask 1 :1; matches      6 atoms
     TI Mask 2 :2; matches      6 atoms
     TI region 1:    2115 atoms
     TI region 2:    2115 atoms

    MBAR - lambda values considered:
      11 total:  0.0000 0.1000 0.2000 0.3000 0.4000 0.5000 0.6000 0.7000 0.8000 0.9000 1.0000
    Extra energies will be computed    500 times.
     Checking for mismatched coordinates.
 Noshake mask :1,2; matches      12 atoms.

--------------------------------------------------------------------------------
   3.  ATOMIC COORDINATES AND VELOCITIES
--------------------------------------------------------------------------------

L0
 begin time read from input coords =   500.000 ps

 Number of triangulated 3-point waters found:      703
   Removing shake constraints from O2    L0    1 -- H6    L0    1
   Removing shake constraints from C1    L0    1 -- H3    L0    1
   Removing shake constraints from C1    L0    1 -- H4    L0    1
   Removing shake constraints from C1    L0    1 -- H5    L0    1
   Removing shake constraints from O2    INT   2 -- H6    INT   2
   Removing shake constraints from C1    INT   2 -- H3    INT   2
   Removing shake constraints from C1    INT   2 -- H4    INT   2
   Removing shake constraints from C1    INT   2 -- H5    INT   2
 Number of shake restraints removed:        8

     Sum of charges for TI region  1 =   0.00000000
     Forcing neutrality...

     Sum of charges for TI region  2 =   0.00000000
     Forcing neutrality...

--------------------------------------------------------------------------------
   4.  RESULTS
 NSTEP =    10000   TIME(PS) =     510.000  TEMP(K) =   298.96  PRESS =   105.2
 Etot   =     -5479.6642  EKtot   =      1259.4826  EPtot      =     -6739.1467
 BOND   =         1.0596  ANGLE   =         1.2089  DIHED      =         0.0648
 1-4 NB =         0.0000  1-4 EEL =         2.2620  VDWAALS    =      1023.1859
 EELEC  =     -7766.9279  EHBOND  =         0.0000  RESTRAINT  =         0.0000
 EKCMT  =       627.1885  VIRIAL  =       578.8437  VOLUME     =     21288.1445
                                                    Density    =         0.9904
 DV/DL  =         1.3430
 Ewald error estimate:   0.2154E-04
 ------------------------------------------------------------------------------

      A V E R A G E S   O V E R   50000 S T E P S

 NSTEP =    50000   TIME(PS) =     550.000  TEMP(K) =   297.19  PRESS =     7.5
 Etot   =     -5489.3156  EKtot   =      1252.0263  EPtot      =     -6741.3419
 BOND   =         1.6160  ANGLE   =         1.8533  DIHED      =         0.3036
 1-4 NB =         0.0000  1-4 EEL =         2.2931  VDWAALS    =      1010.3048
 EELEC  =     -7757.7127  EHBOND  =         0.0000  RESTRAINT  =         0.0000
 EKCMT  =       623.8662  VIRIAL  =       620.4068  VOLUME     =     21368.4148
                                                    Density    =         0.9867
 DV/DL  =         1.8288
 Ewald error estimate:   0.2059E-03
 ------------------------------------------------------------------------------

      R M S  F L U C T U A T I O N S

 NSTEP =    50000   TIME(PS) =     550.000  TEMP(K) =     6.36  PRESS =   376.8
 Etot   =        48.2895  EKtot   =        26.8026  EPtot      =        39.4245
 BOND   =         0.9735  ANGLE   =         1.0580  DIHED      =         0.3057
 1-4 NB =         0.0000  1-4 EEL =         0.0705  VDWAALS    =        38.2391
 EELEC  =        63.4752  EHBOND  =         0.0000  RESTRAINT  =         0.0000
 EKCMT  =        17.9297  VIRIAL  =       173.9921  VOLUME     =        67.3166
                                                    Density    =         0.0031
 DV/DL  =         3.1233
 Ewald error estimate:   0.1566E-03
 ------------------------------------------------------------------------------

      A V E R A G E S   O V E R   50000 S T E P S

 NSTEP =    50000   TIME(PS) =     550.000  TEMP(K) =   297.19  PRESS =     7.5
 Etot   =     -5489.3156  EKtot   =      1252.0263  EPtot      =     -6741.3419
 BOND   =         1.6160  ANGLE   =         1.8533  DIHED      =         0.3036
 1-4 NB =         0.0000  1-4 EEL =         2.2931  VDWAALS    =      1010.3048
 EELEC  =     -7757.7127  EHBOND  =         0.0000  RESTRAINT  =         0.0000
 EKCMT  =       623.8662  VIRIAL  =       620.4068  VOLUME     =     21368.4148
                                                    Density    =         0.9867
 DV/DL  =         1.8288
 Ewald error estimate:   0.2059E-03
 ------------------------------------------------------------------------------

      R M S  F L U C T U A T I O N S

 NSTEP =    50000   TIME(PS) =     550.000  TEMP(K) =     6.36  PRESS =   376.8
 Etot   =        48.2895  EKtot   =        26.8026  EPtot      =        39.4245
 BOND   =         0.9735  ANGLE   =         1.0580  DIHED      =         0.3057
 1-4 NB =         0.0000  1-4 EEL =         0.0705  VDWAALS    =        38.2391
 EELEC  =        63.4752  EHBOND  =         0.0000  RESTRAINT  =         0.0000
 EKCMT  =        17.9297  VIRIAL  =       173.9921  VOLUME     =        67.3166
                                                    Density    =         0.0031
 DV/DL  =         3.1233
 Ewald error estimate:   0.1566E-03
 ------------------------------------------------------------------------------

      DV/DL, AVERAGES OVER   50000 STEPS

 NSTEP =    50000   TIME(PS) =     550.000  TEMP(K) =     6.36  PRESS =     0.0
 Etot   =         0.0000  EKtot   =         0.0000  EPtot      =         1.8288
 BOND   =         0.0000  ANGLE   =         0.0000  DIHED      =         0.0000
 1-4 NB =         0.0000  1-4 EEL =        -3.8218  VDWAALS    =         0.0000
 EELEC  =         5.6506  EHBOND  =         0.0000  RESTRAINT  =         0.0000
 EKCMT  =         0.0000  VIRIAL  =         0.0000  VOLUME     =         0.0000
                                                    Density    =         0.0000
 DV/DL  =         1.8288
 Ewald error estimate:   0.0000E+00
 ------------------------------------------------------------------------------

      A V E R A G E S   O V E R   50000 S T E P S

 NSTEP =   100000   TIME(PS) =     600.000  TEMP(K) =   297.29  PRESS =     3.6
 Etot   =     -5492.7384  EKtot   =      1252.4307  EPtot      =     -6745.1692
 BOND   =         1.6395  ANGLE   =         1.7758  DIHED      =         0.2981
 1-4 NB =         0.0000  1-4 EEL =         2.2920  VDWAALS    =      1015.8475
 EELEC  =     -7767.0221  EHBOND  =         0.0000  RESTRAINT  =         0.0000
 EKCMT  =       624.5570  VIRIAL  =       622.8843  VOLUME     =     21407.4637
                                                    Density    =         0.9849
 DV/DL  =         2.1418
 Ewald error estimate:   0.2022E-03
 ------------------------------------------------------------------------------

      R M S  F L U C T U A T I O N S

 NSTEP =   100000   TIME(PS) =     600.000  TEMP(K) =     6.10  PRESS =   371.4
 Etot   =        41.7766  EKtot   =        25.7042  EPtot      =        34.7452
 BOND   =         1.0314  ANGLE   =         1.0776  DIHED      =         0.3058
 1-4 NB =         0.0000  1-4 EEL =         0.0705  VDWAALS    =        36.2578
 EELEC  =        55.6892  EHBOND  =         0.0000  RESTRAINT  =         0.0000
 EKCMT  =        18.3392  VIRIAL  =       172.9877  VOLUME     =        84.8922
                                                    Density    =         0.0039
 DV/DL  =         3.2975
 Ewald error estimate:   0.1508E-03
 ------------------------------------------------------------------------------

      A V E R A G E S   O V E R   50000 S T E P S

 NSTEP =   100000   TIME(PS) =     600.000  TEMP(K) =   297.29  PRESS =     3.6
 Etot   =     -5492.7384  EKtot   =      1252.4307  EPtot      =     -6745.1692
 BOND   =         1.6395  ANGLE   =         1.7758  DIHED      =         0.2981
 1-4 NB =         0.0000  1-4 EEL =         2.2920  VDWAALS    =      1015.8475
 EELEC  =     -7767.0221  EHBOND  =         0.0000  RESTRAINT  =         0.0000
 EKCMT  =       624.5570  VIRIAL  =       622.8843  VOLUME     =     21407.4637
                                                    Density    =         0.9849
 DV/DL  =         2.1418
 Ewald error estimate:   0.2022E-03
 ------------------------------------------------------------------------------

      R M S  F L U C T U A T I O N S

 NSTEP =   100000   TIME(PS) =     600.000  TEMP(K) =     6.10  PRESS =   371.4
 Etot   =        41.7766  EKtot   =        25.7042  EPtot      =        34.7452
 BOND   =         1.0314  ANGLE   =         1.0776  DIHED      =         0.3058
 1-4 NB =         0.0000  1-4 EEL =         0.0705  VDWAALS    =        36.2578
 EELEC  =        55.6892  EHBOND  =         0.0000  RESTRAINT  =         0.0000
 EKCMT  =        18.3392  VIRIAL  =       172.9877  VOLUME     =        84.8922
                                                    Density    =         0.0039
 DV/DL  =         3.2975
 Ewald error estimate:   0.1508E-03
 ------------------------------------------------------------------------------

      DV/DL, AVERAGES OVER   50000 STEPS

 NSTEP =   100000   TIME(PS) =     600.000  TEMP(K) =     6.10  PRESS =     0.0
 Etot   =         0.0000  EKtot   =         0.0000  EPtot      =         2.1418
 BOND   =         0.0000  ANGLE   =         0.0000  DIHED      =         0.0000
 1-4 NB =         0.0000  1-4 EEL =        -3.8200  VDWAALS    =         0.0000
 EELEC  =         5.9618  EHBOND  =         0.0000  RESTRAINT  =         0.0000
 EKCMT  =         0.0000  VIRIAL  =         0.0000  VOLUME     =         0.0000
                                                    Density    =         0.0000
 DV/DL  =         2.1418
 Ewald error estimate:   0.0000E+00
 ------------------------------------------------------------------------------

      A V E R A G E S   O V E R   50000 S T E P S

 NSTEP =   500000   TIME(PS) =    1000.000  TEMP(K) =   297.77  PRESS =     3.2
 Etot   =     -5476.7281  EKtot   =      1254.4599  EPtot      =     -6731.1880
 BOND   =         1.5349  ANGLE   =         2.0603  DIHED      =         0.3034
 1-4 NB =         0.0000  1-4 EEL =         2.2940  VDWAALS    =      1008.3198
 EELEC  =     -7745.7004  EHBOND  =         0.0000  RESTRAINT  =         0.0000
 EKCMT  =       626.6617  VIRIAL  =       625.1769  VOLUME     =     21395.6392
                                                    Density    =         0.9855
 DV/DL  =         1.9078
 Ewald error estimate:   0.2076E-03
 ------------------------------------------------------------------------------

      R M S  F L U C T U A T I O N S

 NSTEP =   500000   TIME(PS) =    1000.000  TEMP(K) =     6.38  PRESS =   376.5
 Etot   =        44.2759  EKtot   =        26.8570  EPtot      =        35.9920
 BOND   =         0.9618  ANGLE   =         1.1858  DIHED      =         0.2989
 1-4 NB =         0.0000  1-4 EEL =         0.0751  VDWAALS    =        37.1046
 EELEC  =        57.3956  EHBOND  =         0.0000  RESTRAINT  =         0.0000
 EKCMT  =        18.6056  VIRIAL  =       174.6247  VOLUME     =        66.2704
                                                    Density    =         0.0030
 DV/DL  =         3.1062
 Ewald error estimate:   0.1555E-03
 ------------------------------------------------------------------------------

      A V E R A G E S   O V E R   50000 S T E P S

 NSTEP =   500000   TIME(PS) =    1000.000  TEMP(K) =   297.77  PRESS =     3.2
 Etot   =     -5476.7281  EKtot   =      1254.4599  EPtot      =     -6731.1880
 BOND   =         1.5349  ANGLE   =         2.0603  DIHED      =         0.3034
 1-4 NB =         0.0000  1-4 EEL =         2.2940  VDWAALS    =      1008.3198
 EELEC  =     -7745.7004  EHBOND  =         0.0000  RESTRAINT  =         0.0000
 EKCMT  =       626.6617  VIRIAL  =       625.1769  VOLUME     =     21395.6392
                                                    Density    =         0.9855
 DV/DL  =         1.9078
 Ewald error estimate:   0.2076E-03
 ------------------------------------------------------------------------------

      R M S  F L U C T U A T I O N S

 NSTEP =   500000   TIME(PS) =    1000.000  TEMP(K) =     6.38  PRESS =   376.5
 Etot   =        44.2759  EKtot   =        26.8570  EPtot      =        35.9920
 BOND   =         0.9618  ANGLE   =         1.1858  DIHED      =         0.2989
 1-4 NB =         0.0000  1-4 EEL =         0.0751  VDWAALS    =        37.1046
 EELEC  =        57.3956  EHBOND  =         0.0000  RESTRAINT  =         0.0000
 EKCMT  =        18.6056  VIRIAL  =       174.6247  VOLUME     =        66.2704
                                                    Density    =         0.0030
 DV/DL  =         3.1062
 Ewald error estimate:   0.1555E-03
 ------------------------------------------------------------------------------

      DV/DL, AVERAGES OVER   50000 STEPS

 NSTEP =   500000   TIME(PS) =    1000.000  TEMP(K) =     6.38  PRESS =     0.0
 Etot   =         0.0000  EKtot   =         0.0000  EPtot      =         1.9078
 BOND   =         0.0000  ANGLE   =         0.0000  DIHED      =         0.0000
 1-4 NB =         0.0000  1-4 EEL =        -3.8233  VDWAALS    =         0.0000
 EELEC  =         5.7311  EHBOND  =         0.0000  RESTRAINT  =         0.0000
 EKCMT  =         0.0000  VIRIAL  =         0.0000  VOLUME     =         0.0000
                                                    Density    =         0.0000
 DV/DL  =         1.9078
 Ewald error estimate:   0.0000E+00
 ------------------------------------------------------------------------------

      A V E R A G E S   O V E R  500000 S T E P S

 NSTEP =   500000   TIME(PS) =    1000.000  TEMP(K) =   297.51  PRESS =     1.7
 Etot   =     -5483.2219  EKtot   =      1253.3445  EPtot      =     -6736.5664
 BOND   =         1.5715  ANGLE   =         1.8338  DIHED      =         0.3048
 1-4 NB =         0.0000  1-4 EEL =         2.2928  VDWAALS    =      1009.9238
 EELEC  =     -7752.4930  EHBOND  =         0.0000  RESTRAINT  =         0.0000
 EKCMT  =       625.5263  VIRIAL  =       624.7482  VOLUME     =     21390.1761
                                                    Density    =         0.9857
 DV/DL  =         1.9574
 Ewald error estimate:   0.2074E-03
 ------------------------------------------------------------------------------

      R M S  F L U C T U A T I O N S

 NSTEP =   500000   TIME(PS) =    1000.000  TEMP(K) =     6.33  PRESS =   383.4
 Etot   =        44.7412  EKtot   =        26.6849  EPtot      =        36.6819
 BOND   =         1.0002  ANGLE   =         1.0646  DIHED      =         0.3052
 1-4 NB =         0.0000  1-4 EEL =         0.0693  VDWAALS    =        37.7751
 EELEC  =        59.0939  EHBOND  =         0.0000  RESTRAINT  =         0.0000
 EKCMT  =        18.7760  VIRIAL  =       177.1373  VOLUME     =        74.3816
                                                    Density    =         0.0034
 DV/DL  =         3.0860
 Ewald error estimate:   0.1560E-03
 ------------------------------------------------------------------------------

      A V E R A G E S   O V E R  500000 S T E P S

 NSTEP =   500000   TIME(PS) =    1000.000  TEMP(K) =   297.51  PRESS =     1.7
 Etot   =     -5483.2219  EKtot   =      1253.3445  EPtot      =     -6736.5664
 BOND   =         1.5715  ANGLE   =         1.8338  DIHED      =         0.3048
 1-4 NB =         0.0000  1-4 EEL =         2.2928  VDWAALS    =      1009.9238
 EELEC  =     -7752.4930  EHBOND  =         0.0000  RESTRAINT  =         0.0000
 EKCMT  =       625.5263  VIRIAL  =       624.7482  VOLUME     =     21390.1761
                                                    Density    =         0.9857
 DV/DL  =         1.9574
 Ewald error estimate:   0.2074E-03
 ------------------------------------------------------------------------------

      R M S  F L U C T U A T I O N S

 NSTEP =   500000   TIME(PS) =    1000.000  TEMP(K) =     6.33  PRESS =   383.4
 Etot   =        44.7412  EKtot   =        26.6849  EPtot      =        36.6819
 BOND   =         1.0002  ANGLE   =         1.0646  DIHED      =         0.3052
 1-4 NB =         0.0000  1-4 EEL =         0.0693  VDWAALS    =        37.7751
 EELEC  =        59.0939  EHBOND  =         0.0000  RESTRAINT  =         0.0000
 EKCMT  =        18.7760  VIRIAL  =       177.1373  VOLUME     =        74.3816
                                                    Density    =         0.0034
 DV/DL  =         3.0860
 Ewald error estimate:   0.1560E-03
 ------------------------------------------------------------------------------

      DV/DL, AVERAGES OVER  500000 STEPS

 NSTEP =   500000   TIME(PS) =    1000.000  TEMP(K) =     6.33  PRESS =     0.0
 Etot   =         0.0000  EKtot   =         0.0000  EPtot      =         1.9574
 BOND   =         0.0000  ANGLE   =         0.0000  DIHED      =         0.0000
 1-4 NB =         0.0000  1-4 EEL =        -3.8213  VDWAALS    =         0.0000
 EELEC  =         5.7787  EHBOND  =         0.0000  RESTRAINT  =         0.0000
 EKCMT  =         0.0000  VIRIAL  =         0.0000  VOLUME     =         0.0000
                                                    Density    =         0.0000
 DV/DL  =         1.9574
 Ewald error estimate:   0.0000E+00
 ------------------------------------------------------------------------------
