-------------------------------------------------------
          Amber 14 SANDER                              2014
          -------------------------------------------------------

  [-O]verwriting output

File Assignments:

 Here is the input file:

MD simulation
 &cntrl
   imin = 0, nstlim = 500000, irest = 1, ntx = 5, dt = 0.001,
   ntt = 3, temp0 = 298.0, gamma_ln = 2.0, ig = -1,
   ntp = 1, pres0 = 1.01325, taup = 2.0,
   ntb = 2,
   ioutfm = 1, iwrap = 1,
   ntwe = 10000, ntwx = 10000, ntpr = 10000, ntwr = 50000, ntave = 50000,

   ntc = 2, ntf = 1,
   noshakemask = ':1,2',

   icfe = 1, ifsc = 0, clambda = 0.4, scalpha = 0.5, scbeta = 12.0,
   logdvdl = 1,
   ifmbar = 1, bar_intervall = 1000, bar_l_min = 0.0, bar_l_max = 1.0,
   bar_l_incr = 0.1,
   timask1 = ':1', timask2 = ':2'
 /
 &ewald
 /

Note: ig = -1. Setting random seed to   615530 based on wallclock time in
      microseconds and disabling the synchronization of random numbers
      between tasks to improve performance.

--------------------------------------------------------------------------------
   1.  RESOURCE   USE:
--------------------------------------------------------------------------------

 getting new box info from bottom of inpcrd
 NATOM  =    2121 NTYPES =       6 NBONH =    2117 MBONA  =       2
 NTHETH =      14 MTHETA =       0 NPHIH =       6 MPHIA  =       0
 NHPARM =       0 NPARM  =       0 NNB   =    2844 NRES   =     705
 NBONA  =       2 NTHETA =       0 NPHIA =       0 NUMBND =       5
 NUMANG =       3 NPTRA  =       1 NATYP =       6 NPHB   =       1
 IFBOX  =       1 NMXRS  =       6 IFCAP =       0 NEXTRA =       0
 NCOPY  =       0

     BOX TYPE: RECTILINEAR

--------------------------------------------------------------------------------
   2.  CONTROL  DATA  FOR  THE  RUN
--------------------------------------------------------------------------------

L0

General flags:
     imin    =       0, nmropt  =       0

Nature and format of input:
     ntx     =       5, irest   =       1, ntrx    =       1

Nature and format of output:
     ntxo    =       1, ntpr    =   10000, ntrx    =       1, ntwr    =   50000
     iwrap   =       1, ntwx    =   10000, ntwv    =       0, ntwe    =   10000
     ioutfm  =       1, ntwprt  =       0, idecomp =       0, rbornstat=      0

Potential function:
     ntf     =       1, ntb     =       2, igb     =       0, nsnb    =      25
     ipol    =       0, gbsa    =       0, iesp    =       0
     dielc   =   1.00000, cut     =   8.00000, intdiel =   1.00000

Frozen or restrained atoms:
     ibelly  =       0, ntr     =       0

Molecular dynamics:
     nstlim  =    500000, nscm    =      1000, nrespa  =         1
     t       =   0.00000, dt      =   0.00100, vlimit  =  20.00000

Langevin dynamics temperature regulation:
     ig      =  615530
     temp0   = 298.00000, tempi   =   0.00000, gamma_ln=   2.00000

Pressure regulation:
     ntp     =       1
     pres0   =   1.01325, comp    =  44.60000, taup    =   2.00000

SHAKE:
     ntc     =       2, jfastw  =       0
     tol     =   0.00001

Free energy options:
     icfe    =       1, ifsc    =       0, klambda =       1
     clambda =  0.4000, scalpha =  0.5000, scbeta  = 12.0000
     sceeorder =       2
     dynlmb =  0.0000 logdvdl =       1

FEP MBAR options:
     ifmbar  =       1,  bar_intervall =     1000
     bar_l_min =0.0000,  bar_l_max =1.0000,  bar_l_incr =0.1000

Ewald parameters:
     verbose =       0, ew_type =       0, nbflag  =       1, use_pme =       1
     vdwmeth =       1, eedmeth =       1, netfrc  =       1
     Box X =   28.147   Box Y =   27.766   Box Z =   27.385
     Alpha =   90.000   Beta  =   90.000   Gamma =   90.000
     NFFT1 =   30       NFFT2 =   30       NFFT3 =   30
     Cutoff=    8.000   Tol   =0.100E-04
     Ewald Coefficient =  0.34864
     Interpolation order =    4

     TI Mask 1 :1; matches      6 atoms
     TI Mask 2 :2; matches      6 atoms
     TI region 1:    2115 atoms
     TI region 2:    2115 atoms

    MBAR - lambda values considered:
      11 total:  0.0000 0.1000 0.2000 0.3000 0.4000 0.5000 0.6000 0.7000 0.8000 0.9000 1.0000
    Extra energies will be computed    500 times.
     Checking for mismatched coordinates.
 Noshake mask :1,2; matches      12 atoms.

--------------------------------------------------------------------------------
   3.  ATOMIC COORDINATES AND VELOCITIES
--------------------------------------------------------------------------------

L0
 begin time read from input coords =  1000.000 ps

 Number of triangulated 3-point waters found:      703
   Removing shake constraints from O2    L0    1 -- H6    L0    1
   Removing shake constraints from C1    L0    1 -- H3    L0    1
   Removing shake constraints from C1    L0    1 -- H4    L0    1
   Removing shake constraints from C1    L0    1 -- H5    L0    1
   Removing shake constraints from O2    INT   2 -- H6    INT   2
   Removing shake constraints from C1    INT   2 -- H3    INT   2
   Removing shake constraints from C1    INT   2 -- H4    INT   2
   Removing shake constraints from C1    INT   2 -- H5    INT   2
 Number of shake restraints removed:        8

     Sum of charges for TI region  1 =   0.00000000
     Forcing neutrality...

     Sum of charges for TI region  2 =   0.00000000
     Forcing neutrality...

--------------------------------------------------------------------------------
   4.  RESULTS
 NSTEP =    10000   TIME(PS) =    1010.000  TEMP(K) =   295.13  PRESS =  -363.9
 Etot   =     -5545.2223  EKtot   =      1243.3494  EPtot      =     -6788.5717
 BOND   =         2.8109  ANGLE   =         2.2970  DIHED      =         0.4097
 1-4 NB =         0.0000  1-4 EEL =         2.3472  VDWAALS    =      1001.4529
 EELEC  =     -7797.8894  EHBOND  =         0.0000  RESTRAINT  =         0.0000
 EKCMT  =       641.5780  VIRIAL  =       809.7439  VOLUME     =     21406.0221
                                                    Density    =         0.9850
 DV/DL  =         0.9337
 Ewald error estimate:   0.2225E-03
 ------------------------------------------------------------------------------

      A V E R A G E S   O V E R   50000 S T E P S

 NSTEP =    50000   TIME(PS) =    1050.000  TEMP(K) =   297.16  PRESS =    -9.4
 Etot   =     -5487.7907  EKtot   =      1251.9011  EPtot      =     -6739.6918
 BOND   =         1.5183  ANGLE   =         1.8068  DIHED      =         0.3239
 1-4 NB =         0.0000  1-4 EEL =         2.2929  VDWAALS    =      1012.7451
 EELEC  =     -7758.3788  EHBOND  =         0.0000  RESTRAINT  =         0.0000
 EKCMT  =       625.9697  VIRIAL  =       630.2915  VOLUME     =     21442.1060
                                                    Density    =         0.9833
 DV/DL  =         1.7131
 Ewald error estimate:   0.1996E-03
 ------------------------------------------------------------------------------

      R M S  F L U C T U A T I O N S

 NSTEP =    50000   TIME(PS) =    1050.000  TEMP(K) =     6.56  PRESS =   393.4
 Etot   =        50.3172  EKtot   =        27.6493  EPtot      =        39.7037
 BOND   =         0.9277  ANGLE   =         1.0198  DIHED      =         0.3136
 1-4 NB =         0.0000  1-4 EEL =         0.0695  VDWAALS    =        38.0272
 EELEC  =        60.7637  EHBOND  =         0.0000  RESTRAINT  =         0.0000
 EKCMT  =        19.7917  VIRIAL  =       180.8831  VOLUME     =        84.8004
                                                    Density    =         0.0039
 DV/DL  =         2.8732
 Ewald error estimate:   0.1524E-03
 ------------------------------------------------------------------------------

      A V E R A G E S   O V E R   50000 S T E P S

 NSTEP =    50000   TIME(PS) =    1050.000  TEMP(K) =   297.16  PRESS =    -9.4
 Etot   =     -5487.7907  EKtot   =      1251.9011  EPtot      =     -6739.6918
 BOND   =         1.5183  ANGLE   =         1.8068  DIHED      =         0.3239
 1-4 NB =         0.0000  1-4 EEL =         2.2929  VDWAALS    =      1012.7451
 EELEC  =     -7758.3788  EHBOND  =         0.0000  RESTRAINT  =         0.0000
 EKCMT  =       625.9697  VIRIAL  =       630.2915  VOLUME     =     21442.1060
                                                    Density    =         0.9833
 DV/DL  =         1.7131
 Ewald error estimate:   0.1996E-03
 ------------------------------------------------------------------------------

      R M S  F L U C T U A T I O N S

 NSTEP =    50000   TIME(PS) =    1050.000  TEMP(K) =     6.56  PRESS =   393.4
 Etot   =        50.3172  EKtot   =        27.6493  EPtot      =        39.7037
 BOND   =         0.9277  ANGLE   =         1.0198  DIHED      =         0.3136
 1-4 NB =         0.0000  1-4 EEL =         0.0695  VDWAALS    =        38.0272
 EELEC  =        60.7637  EHBOND  =         0.0000  RESTRAINT  =         0.0000
 EKCMT  =        19.7917  VIRIAL  =       180.8831  VOLUME     =        84.8004
                                                    Density    =         0.0039
 DV/DL  =         2.8732
 Ewald error estimate:   0.1524E-03
 ------------------------------------------------------------------------------

      DV/DL, AVERAGES OVER   50000 STEPS

 NSTEP =    50000   TIME(PS) =    1050.000  TEMP(K) =     6.56  PRESS =     0.0
 Etot   =         0.0000  EKtot   =         0.0000  EPtot      =         1.7131
 BOND   =         0.0000  ANGLE   =         0.0000  DIHED      =         0.0000
 1-4 NB =         0.0000  1-4 EEL =        -3.8215  VDWAALS    =         0.0000
 EELEC  =         5.5346  EHBOND  =         0.0000  RESTRAINT  =         0.0000
 EKCMT  =         0.0000  VIRIAL  =         0.0000  VOLUME     =         0.0000
                                                    Density    =         0.0000
 DV/DL  =         1.7131
 Ewald error estimate:   0.0000E+00
 ------------------------------------------------------------------------------

      A V E R A G E S   O V E R   50000 S T E P S

 NSTEP =   100000   TIME(PS) =    1100.000  TEMP(K) =   297.86  PRESS =    13.8
 Etot   =     -5481.0145  EKtot   =      1254.8468  EPtot      =     -6735.8614
 BOND   =         1.5680  ANGLE   =         1.8654  DIHED      =         0.3038
 1-4 NB =         0.0000  1-4 EEL =         2.2932  VDWAALS    =      1008.8266
 EELEC  =     -7750.7183  EHBOND  =         0.0000  RESTRAINT  =         0.0000
 EKCMT  =       627.1688  VIRIAL  =       620.8403  VOLUME     =     21364.6086
                                                    Density    =         0.9869
 DV/DL  =         1.9880
 Ewald error estimate:   0.2128E-03
 ------------------------------------------------------------------------------

      R M S  F L U C T U A T I O N S

 NSTEP =   100000   TIME(PS) =    1100.000  TEMP(K) =     6.40  PRESS =   391.4
 Etot   =        48.4133  EKtot   =        26.9648  EPtot      =        39.7299
 BOND   =         0.9437  ANGLE   =         1.0377  DIHED      =         0.3059
 1-4 NB =         0.0000  1-4 EEL =         0.0705  VDWAALS    =        38.5737
 EELEC  =        63.2397  EHBOND  =         0.0000  RESTRAINT  =         0.0000
 EKCMT  =        19.1096  VIRIAL  =       179.0693  VOLUME     =       101.0410
                                                    Density    =         0.0047
 DV/DL  =         2.9406
 Ewald error estimate:   0.1599E-03
 ------------------------------------------------------------------------------

      A V E R A G E S   O V E R   50000 S T E P S

 NSTEP =   100000   TIME(PS) =    1100.000  TEMP(K) =   297.86  PRESS =    13.8
 Etot   =     -5481.0145  EKtot   =      1254.8468  EPtot      =     -6735.8614
 BOND   =         1.5680  ANGLE   =         1.8654  DIHED      =         0.3038
 1-4 NB =         0.0000  1-4 EEL =         2.2932  VDWAALS    =      1008.8266
 EELEC  =     -7750.7183  EHBOND  =         0.0000  RESTRAINT  =         0.0000
 EKCMT  =       627.1688  VIRIAL  =       620.8403  VOLUME     =     21364.6086
                                                    Density    =         0.9869
 DV/DL  =         1.9880
 Ewald error estimate:   0.2128E-03
 ------------------------------------------------------------------------------

      R M S  F L U C T U A T I O N S

 NSTEP =   100000   TIME(PS) =    1100.000  TEMP(K) =     6.40  PRESS =   391.4
 Etot   =        48.4133  EKtot   =        26.9648  EPtot      =        39.7299
 BOND   =         0.9437  ANGLE   =         1.0377  DIHED      =         0.3059
 1-4 NB =         0.0000  1-4 EEL =         0.0705  VDWAALS    =        38.5737
 EELEC  =        63.2397  EHBOND  =         0.0000  RESTRAINT  =         0.0000
 EKCMT  =        19.1096  VIRIAL  =       179.0693  VOLUME     =       101.0410
                                                    Density    =         0.0047
 DV/DL  =         2.9406
 Ewald error estimate:   0.1599E-03
 ------------------------------------------------------------------------------

      DV/DL, AVERAGES OVER   50000 STEPS

 NSTEP =   100000   TIME(PS) =    1100.000  TEMP(K) =     6.40  PRESS =     0.0
 Etot   =         0.0000  EKtot   =         0.0000  EPtot      =         1.9880
 BOND   =         0.0000  ANGLE   =         0.0000  DIHED      =         0.0000
 1-4 NB =         0.0000  1-4 EEL =        -3.8219  VDWAALS    =         0.0000
 EELEC  =         5.8099  EHBOND  =         0.0000  RESTRAINT  =         0.0000
 EKCMT  =         0.0000  VIRIAL  =         0.0000  VOLUME     =         0.0000
                                                    Density    =         0.0000
 DV/DL  =         1.9880
 Ewald error estimate:   0.0000E+00
 ------------------------------------------------------------------------------

      A V E R A G E S   O V E R   50000 S T E P S

 NSTEP =   500000   TIME(PS) =    1500.000  TEMP(K) =   297.18  PRESS =     5.8
 Etot   =     -5487.8038  EKtot   =      1251.9607  EPtot      =     -6739.7645
 BOND   =         1.5510  ANGLE   =         1.7745  DIHED      =         0.3106
 1-4 NB =         0.0000  1-4 EEL =         2.2930  VDWAALS    =      1012.3290
 EELEC  =     -7758.0225  EHBOND  =         0.0000  RESTRAINT  =         0.0000
 EKCMT  =       624.6314  VIRIAL  =       621.9348  VOLUME     =     21392.9388
                                                    Density    =         0.9856
 DV/DL  =         2.0698
 Ewald error estimate:   0.2012E-03
 ------------------------------------------------------------------------------

      R M S  F L U C T U A T I O N S

 NSTEP =   500000   TIME(PS) =    1500.000  TEMP(K) =     6.34  PRESS =   387.9
 Etot   =        45.6249  EKtot   =        26.6923  EPtot      =        38.1200
 BOND   =         1.0125  ANGLE   =         1.0383  DIHED      =         0.3106
 1-4 NB =         0.0000  1-4 EEL =         0.0694  VDWAALS    =        37.2906
 EELEC  =        58.6707  EHBOND  =         0.0000  RESTRAINT  =         0.0000
 EKCMT  =        19.0466  VIRIAL  =       179.4168  VOLUME     =        80.7302
                                                    Density    =         0.0037
 DV/DL  =         2.9942
 Ewald error estimate:   0.1524E-03
 ------------------------------------------------------------------------------

      A V E R A G E S   O V E R   50000 S T E P S

 NSTEP =   500000   TIME(PS) =    1500.000  TEMP(K) =   297.18  PRESS =     5.8
 Etot   =     -5487.8038  EKtot   =      1251.9607  EPtot      =     -6739.7645
 BOND   =         1.5510  ANGLE   =         1.7745  DIHED      =         0.3106
 1-4 NB =         0.0000  1-4 EEL =         2.2930  VDWAALS    =      1012.3290
 EELEC  =     -7758.0225  EHBOND  =         0.0000  RESTRAINT  =         0.0000
 EKCMT  =       624.6314  VIRIAL  =       621.9348  VOLUME     =     21392.9388
                                                    Density    =         0.9856
 DV/DL  =         2.0698
 Ewald error estimate:   0.2012E-03
 ------------------------------------------------------------------------------

      R M S  F L U C T U A T I O N S

 NSTEP =   500000   TIME(PS) =    1500.000  TEMP(K) =     6.34  PRESS =   387.9
 Etot   =        45.6249  EKtot   =        26.6923  EPtot      =        38.1200
 BOND   =         1.0125  ANGLE   =         1.0383  DIHED      =         0.3106
 1-4 NB =         0.0000  1-4 EEL =         0.0694  VDWAALS    =        37.2906
 EELEC  =        58.6707  EHBOND  =         0.0000  RESTRAINT  =         0.0000
 EKCMT  =        19.0466  VIRIAL  =       179.4168  VOLUME     =        80.7302
                                                    Density    =         0.0037
 DV/DL  =         2.9942
 Ewald error estimate:   0.1524E-03
 ------------------------------------------------------------------------------

      DV/DL, AVERAGES OVER   50000 STEPS

 NSTEP =   500000   TIME(PS) =    1500.000  TEMP(K) =     6.34  PRESS =     0.0
 Etot   =         0.0000  EKtot   =         0.0000  EPtot      =         2.0698
 BOND   =         0.0000  ANGLE   =         0.0000  DIHED      =         0.0000
 1-4 NB =         0.0000  1-4 EEL =        -3.8216  VDWAALS    =         0.0000
 EELEC  =         5.8914  EHBOND  =         0.0000  RESTRAINT  =         0.0000
 EKCMT  =         0.0000  VIRIAL  =         0.0000  VOLUME     =         0.0000
                                                    Density    =         0.0000
 DV/DL  =         2.0698
 Ewald error estimate:   0.0000E+00
 ------------------------------------------------------------------------------

      A V E R A G E S   O V E R  500000 S T E P S

 NSTEP =   500000   TIME(PS) =    1500.000  TEMP(K) =   297.43  PRESS =     1.6
 Etot   =     -5483.7281  EKtot   =      1253.0443  EPtot      =     -6736.7724
 BOND   =         1.5694  ANGLE   =         1.8360  DIHED      =         0.3073
 1-4 NB =         0.0000  1-4 EEL =         2.2928  VDWAALS    =      1010.4026
 EELEC  =     -7753.1805  EHBOND  =         0.0000  RESTRAINT  =         0.0000
 EKCMT  =       625.0749  VIRIAL  =       624.3507  VOLUME     =     21396.4174
                                                    Density    =         0.9855
 DV/DL  =         1.9710
 Ewald error estimate:   0.2029E-03
 ------------------------------------------------------------------------------

      R M S  F L U C T U A T I O N S

 NSTEP =   500000   TIME(PS) =    1500.000  TEMP(K) =     6.54  PRESS =   386.5
 Etot   =        48.5922  EKtot   =        27.5427  EPtot      =        38.9228
 BOND   =         0.9841  ANGLE   =         1.0650  DIHED      =         0.3076
 1-4 NB =         0.0000  1-4 EEL =         0.0692  VDWAALS    =        37.9352
 EELEC  =        61.1358  EHBOND  =         0.0000  RESTRAINT  =         0.0000
 EKCMT  =        19.4183  VIRIAL  =       178.5446  VOLUME     =        96.4996
                                                    Density    =         0.0044
 DV/DL  =         3.0038
 Ewald error estimate:   0.1536E-03
 ------------------------------------------------------------------------------

      A V E R A G E S   O V E R  500000 S T E P S

 NSTEP =   500000   TIME(PS) =    1500.000  TEMP(K) =   297.43  PRESS =     1.6
 Etot   =     -5483.7281  EKtot   =      1253.0443  EPtot      =     -6736.7724
 BOND   =         1.5694  ANGLE   =         1.8360  DIHED      =         0.3073
 1-4 NB =         0.0000  1-4 EEL =         2.2928  VDWAALS    =      1010.4026
 EELEC  =     -7753.1805  EHBOND  =         0.0000  RESTRAINT  =         0.0000
 EKCMT  =       625.0749  VIRIAL  =       624.3507  VOLUME     =     21396.4174
                                                    Density    =         0.9855
 DV/DL  =         1.9710
 Ewald error estimate:   0.2029E-03
 ------------------------------------------------------------------------------

      R M S  F L U C T U A T I O N S

 NSTEP =   500000   TIME(PS) =    1500.000  TEMP(K) =     6.54  PRESS =   386.5
 Etot   =        48.5922  EKtot   =        27.5427  EPtot      =        38.9228
 BOND   =         0.9841  ANGLE   =         1.0650  DIHED      =         0.3076
 1-4 NB =         0.0000  1-4 EEL =         0.0692  VDWAALS    =        37.9352
 EELEC  =        61.1358  EHBOND  =         0.0000  RESTRAINT  =         0.0000
 EKCMT  =        19.4183  VIRIAL  =       178.5446  VOLUME     =        96.4996
                                                    Density    =         0.0044
 DV/DL  =         3.0038
 Ewald error estimate:   0.1536E-03
 ------------------------------------------------------------------------------

      DV/DL, AVERAGES OVER  500000 STEPS

 NSTEP =   500000   TIME(PS) =    1500.000  TEMP(K) =     6.54  PRESS =     0.0
 Etot   =         0.0000  EKtot   =         0.0000  EPtot      =         1.9710
 BOND   =         0.0000  ANGLE   =         0.0000  DIHED      =         0.0000
 1-4 NB =         0.0000  1-4 EEL =        -3.8213  VDWAALS    =         0.0000
 EELEC  =         5.7923  EHBOND  =         0.0000  RESTRAINT  =         0.0000
 EKCMT  =         0.0000  VIRIAL  =         0.0000  VOLUME     =         0.0000
                                                    Density    =         0.0000
 DV/DL  =         1.9710
 Ewald error estimate:   0.0000E+00
 ------------------------------------------------------------------------------
