-------------------------------------------------------
          Amber 14 SANDER                              2014
          -------------------------------------------------------

  [-O]verwriting output

File Assignments:

 Here is the input file:

MD simulation
 &cntrl
   imin = 0, nstlim = 500000, irest = 1, ntx = 5, dt = 0.001,
   ntt = 3, temp0 = 298.0, gamma_ln = 2.0, ig = -1,
   ntp = 1, pres0 = 1.01325, taup = 2.0,
   ntb = 2,
   ioutfm = 1, iwrap = 1,
   ntwe = 10000, ntwx = 10000, ntpr = 10000, ntwr = 50000, ntave = 50000,

   ntc = 2, ntf = 1,
   noshakemask = ':1,2',

   icfe = 1, ifsc = 0, clambda = 0.3, scalpha = 0.5, scbeta = 12.0,
   logdvdl = 1,
   ifmbar = 1, bar_intervall = 1000, bar_l_min = 0.0, bar_l_max = 1.0,
   bar_l_incr = 0.1,
   timask1 = ':1', timask2 = ':2'
 /
 &ewald
 /

Note: ig = -1. Setting random seed to   398576 based on wallclock time in
      microseconds and disabling the synchronization of random numbers
      between tasks to improve performance.

--------------------------------------------------------------------------------
   1.  RESOURCE   USE:
--------------------------------------------------------------------------------

 getting new box info from bottom of inpcrd
 NATOM  =    2121 NTYPES =       6 NBONH =    2117 MBONA  =       2
 NTHETH =      14 MTHETA =       0 NPHIH =       6 MPHIA  =       0
 NHPARM =       0 NPARM  =       0 NNB   =    2844 NRES   =     705
 NBONA  =       2 NTHETA =       0 NPHIA =       0 NUMBND =       5
 NUMANG =       3 NPTRA  =       1 NATYP =       6 NPHB   =       1
 IFBOX  =       1 NMXRS  =       6 IFCAP =       0 NEXTRA =       0
 NCOPY  =       0

     BOX TYPE: RECTILINEAR

--------------------------------------------------------------------------------
   2.  CONTROL  DATA  FOR  THE  RUN
--------------------------------------------------------------------------------

L0

General flags:
     imin    =       0, nmropt  =       0

Nature and format of input:
     ntx     =       5, irest   =       1, ntrx    =       1

Nature and format of output:
     ntxo    =       1, ntpr    =   10000, ntrx    =       1, ntwr    =   50000
     iwrap   =       1, ntwx    =   10000, ntwv    =       0, ntwe    =   10000
     ioutfm  =       1, ntwprt  =       0, idecomp =       0, rbornstat=      0

Potential function:
     ntf     =       1, ntb     =       2, igb     =       0, nsnb    =      25
     ipol    =       0, gbsa    =       0, iesp    =       0
     dielc   =   1.00000, cut     =   8.00000, intdiel =   1.00000

Frozen or restrained atoms:
     ibelly  =       0, ntr     =       0

Molecular dynamics:
     nstlim  =    500000, nscm    =      1000, nrespa  =         1
     t       =   0.00000, dt      =   0.00100, vlimit  =  20.00000

Langevin dynamics temperature regulation:
     ig      =  398576
     temp0   = 298.00000, tempi   =   0.00000, gamma_ln=   2.00000

Pressure regulation:
     ntp     =       1
     pres0   =   1.01325, comp    =  44.60000, taup    =   2.00000

SHAKE:
     ntc     =       2, jfastw  =       0
     tol     =   0.00001

Free energy options:
     icfe    =       1, ifsc    =       0, klambda =       1
     clambda =  0.3000, scalpha =  0.5000, scbeta  = 12.0000
     sceeorder =       2
     dynlmb =  0.0000 logdvdl =       1

FEP MBAR options:
     ifmbar  =       1,  bar_intervall =     1000
     bar_l_min =0.0000,  bar_l_max =1.0000,  bar_l_incr =0.1000

Ewald parameters:
     verbose =       0, ew_type =       0, nbflag  =       1, use_pme =       1
     vdwmeth =       1, eedmeth =       1, netfrc  =       1
     Box X =   28.134   Box Y =   27.754   Box Z =   27.373
     Alpha =   90.000   Beta  =   90.000   Gamma =   90.000
     NFFT1 =   30       NFFT2 =   30       NFFT3 =   30
     Cutoff=    8.000   Tol   =0.100E-04
     Ewald Coefficient =  0.34864
     Interpolation order =    4

     TI Mask 1 :1; matches      6 atoms
     TI Mask 2 :2; matches      6 atoms
     TI region 1:    2115 atoms
     TI region 2:    2115 atoms

    MBAR - lambda values considered:
      11 total:  0.0000 0.1000 0.2000 0.3000 0.4000 0.5000 0.6000 0.7000 0.8000 0.9000 1.0000
    Extra energies will be computed    500 times.
     Checking for mismatched coordinates.
 Noshake mask :1,2; matches      12 atoms.

--------------------------------------------------------------------------------
   3.  ATOMIC COORDINATES AND VELOCITIES
--------------------------------------------------------------------------------

L0
 begin time read from input coords =  1000.000 ps

 Number of triangulated 3-point waters found:      703
   Removing shake constraints from O2    L0    1 -- H6    L0    1
   Removing shake constraints from C1    L0    1 -- H3    L0    1
   Removing shake constraints from C1    L0    1 -- H4    L0    1
   Removing shake constraints from C1    L0    1 -- H5    L0    1
   Removing shake constraints from O2    INT   2 -- H6    INT   2
   Removing shake constraints from C1    INT   2 -- H3    INT   2
   Removing shake constraints from C1    INT   2 -- H4    INT   2
   Removing shake constraints from C1    INT   2 -- H5    INT   2
 Number of shake restraints removed:        8

     Sum of charges for TI region  1 =   0.00000000
     Forcing neutrality...

     Sum of charges for TI region  2 =   0.00000000
     Forcing neutrality...

--------------------------------------------------------------------------------
   4.  RESULTS
 NSTEP =    10000   TIME(PS) =    1010.000  TEMP(K) =   296.54  PRESS =  -931.8
 Etot   =     -5503.1682  EKtot   =      1249.2675  EPtot      =     -6752.4356
 BOND   =         1.9992  ANGLE   =         1.5291  DIHED      =         0.2953
 1-4 NB =         0.0000  1-4 EEL =         2.5907  VDWAALS    =       915.7143
 EELEC  =     -7674.5642  EHBOND  =         0.0000  RESTRAINT  =         0.0000
 EKCMT  =       617.9794  VIRIAL  =      1042.6194  VOLUME     =     21107.7006
                                                    Density    =         0.9989
 DV/DL  =         5.1474
 Ewald error estimate:   0.6551E-04
 ------------------------------------------------------------------------------

      A V E R A G E S   O V E R   50000 S T E P S

 NSTEP =    50000   TIME(PS) =    1050.000  TEMP(K) =   297.22  PRESS =    -2.6
 Etot   =     -5485.9949  EKtot   =      1252.1464  EPtot      =     -6738.1413
 BOND   =         1.6831  ANGLE   =         1.8204  DIHED      =         0.3299
 1-4 NB =         0.0000  1-4 EEL =         2.6736  VDWAALS    =      1008.7506
 EELEC  =     -7753.3988  EHBOND  =         0.0000  RESTRAINT  =         0.0000
 EKCMT  =       624.3259  VIRIAL  =       625.5282  VOLUME     =     21357.3357
                                                    Density    =         0.9873
 DV/DL  =         3.2788
 Ewald error estimate:   0.2030E-03
 ------------------------------------------------------------------------------

      R M S  F L U C T U A T I O N S

 NSTEP =    50000   TIME(PS) =    1050.000  TEMP(K) =     6.49  PRESS =   384.5
 Etot   =        44.0503  EKtot   =        27.3608  EPtot      =        36.3941
 BOND   =         0.9998  ANGLE   =         1.0232  DIHED      =         0.3180
 1-4 NB =         0.0000  1-4 EEL =         0.0805  VDWAALS    =        36.3386
 EELEC  =        55.5852  EHBOND  =         0.0000  RESTRAINT  =         0.0000
 EKCMT  =        19.1144  VIRIAL  =       176.9913  VOLUME     =        93.4590
                                                    Density    =         0.0043
 DV/DL  =         3.2860
 Ewald error estimate:   0.1555E-03
 ------------------------------------------------------------------------------

      A V E R A G E S   O V E R   50000 S T E P S

 NSTEP =    50000   TIME(PS) =    1050.000  TEMP(K) =   297.22  PRESS =    -2.6
 Etot   =     -5485.9949  EKtot   =      1252.1464  EPtot      =     -6738.1413
 BOND   =         1.6831  ANGLE   =         1.8204  DIHED      =         0.3299
 1-4 NB =         0.0000  1-4 EEL =         2.6736  VDWAALS    =      1008.7506
 EELEC  =     -7753.3988  EHBOND  =         0.0000  RESTRAINT  =         0.0000
 EKCMT  =       624.3259  VIRIAL  =       625.5282  VOLUME     =     21357.3357
                                                    Density    =         0.9873
 DV/DL  =         3.2788
 Ewald error estimate:   0.2030E-03
 ------------------------------------------------------------------------------

      R M S  F L U C T U A T I O N S

 NSTEP =    50000   TIME(PS) =    1050.000  TEMP(K) =     6.49  PRESS =   384.5
 Etot   =        44.0503  EKtot   =        27.3608  EPtot      =        36.3941
 BOND   =         0.9998  ANGLE   =         1.0232  DIHED      =         0.3180
 1-4 NB =         0.0000  1-4 EEL =         0.0805  VDWAALS    =        36.3386
 EELEC  =        55.5852  EHBOND  =         0.0000  RESTRAINT  =         0.0000
 EKCMT  =        19.1144  VIRIAL  =       176.9913  VOLUME     =        93.4590
                                                    Density    =         0.0043
 DV/DL  =         3.2860
 Ewald error estimate:   0.1555E-03
 ------------------------------------------------------------------------------

      DV/DL, AVERAGES OVER   50000 STEPS

 NSTEP =    50000   TIME(PS) =    1050.000  TEMP(K) =     6.49  PRESS =     0.0
 Etot   =         0.0000  EKtot   =         0.0000  EPtot      =         3.2788
 BOND   =         0.0000  ANGLE   =         0.0000  DIHED      =         0.0000
 1-4 NB =         0.0000  1-4 EEL =        -3.8194  VDWAALS    =         0.0000
 EELEC  =         7.0982  EHBOND  =         0.0000  RESTRAINT  =         0.0000
 EKCMT  =         0.0000  VIRIAL  =         0.0000  VOLUME     =         0.0000
                                                    Density    =         0.0000
 DV/DL  =         3.2788
 Ewald error estimate:   0.0000E+00
 ------------------------------------------------------------------------------

      A V E R A G E S   O V E R   50000 S T E P S

 NSTEP =   100000   TIME(PS) =    1100.000  TEMP(K) =   296.67  PRESS =     4.4
 Etot   =     -5497.9849  EKtot   =      1249.8398  EPtot      =     -6747.8247
 BOND   =         1.6493  ANGLE   =         1.8157  DIHED      =         0.2925
 1-4 NB =         0.0000  1-4 EEL =         2.6745  VDWAALS    =      1014.9447
 EELEC  =     -7769.2014  EHBOND  =         0.0000  RESTRAINT  =         0.0000
 EKCMT  =       621.9769  VIRIAL  =       619.9315  VOLUME     =     21392.7406
                                                    Density    =         0.9856
 DV/DL  =         3.6896
 Ewald error estimate:   0.2087E-03
 ------------------------------------------------------------------------------

      R M S  F L U C T U A T I O N S

 NSTEP =   100000   TIME(PS) =    1100.000  TEMP(K) =     6.68  PRESS =   393.8
 Etot   =        53.6726  EKtot   =        28.1271  EPtot      =        41.4239
 BOND   =         1.0477  ANGLE   =         1.0637  DIHED      =         0.2978
 1-4 NB =         0.0000  1-4 EEL =         0.0804  VDWAALS    =        38.5880
 EELEC  =        63.0691  EHBOND  =         0.0000  RESTRAINT  =         0.0000
 EKCMT  =        19.5932  VIRIAL  =       181.8362  VOLUME     =       114.9879
                                                    Density    =         0.0053
 DV/DL  =         3.3297
 Ewald error estimate:   0.1549E-03
 ------------------------------------------------------------------------------

      A V E R A G E S   O V E R   50000 S T E P S

 NSTEP =   100000   TIME(PS) =    1100.000  TEMP(K) =   296.67  PRESS =     4.4
 Etot   =     -5497.9849  EKtot   =      1249.8398  EPtot      =     -6747.8247
 BOND   =         1.6493  ANGLE   =         1.8157  DIHED      =         0.2925
 1-4 NB =         0.0000  1-4 EEL =         2.6745  VDWAALS    =      1014.9447
 EELEC  =     -7769.2014  EHBOND  =         0.0000  RESTRAINT  =         0.0000
 EKCMT  =       621.9769  VIRIAL  =       619.9315  VOLUME     =     21392.7406
                                                    Density    =         0.9856
 DV/DL  =         3.6896
 Ewald error estimate:   0.2087E-03
 ------------------------------------------------------------------------------

      R M S  F L U C T U A T I O N S

 NSTEP =   100000   TIME(PS) =    1100.000  TEMP(K) =     6.68  PRESS =   393.8
 Etot   =        53.6726  EKtot   =        28.1271  EPtot      =        41.4239
 BOND   =         1.0477  ANGLE   =         1.0637  DIHED      =         0.2978
 1-4 NB =         0.0000  1-4 EEL =         0.0804  VDWAALS    =        38.5880
 EELEC  =        63.0691  EHBOND  =         0.0000  RESTRAINT  =         0.0000
 EKCMT  =        19.5932  VIRIAL  =       181.8362  VOLUME     =       114.9879
                                                    Density    =         0.0053
 DV/DL  =         3.3297
 Ewald error estimate:   0.1549E-03
 ------------------------------------------------------------------------------

      DV/DL, AVERAGES OVER   50000 STEPS

 NSTEP =   100000   TIME(PS) =    1100.000  TEMP(K) =     6.68  PRESS =     0.0
 Etot   =         0.0000  EKtot   =         0.0000  EPtot      =         3.6896
 BOND   =         0.0000  ANGLE   =         0.0000  DIHED      =         0.0000
 1-4 NB =         0.0000  1-4 EEL =        -3.8208  VDWAALS    =         0.0000
 EELEC  =         7.5104  EHBOND  =         0.0000  RESTRAINT  =         0.0000
 EKCMT  =         0.0000  VIRIAL  =         0.0000  VOLUME     =         0.0000
                                                    Density    =         0.0000
 DV/DL  =         3.6896
 Ewald error estimate:   0.0000E+00
 ------------------------------------------------------------------------------

      A V E R A G E S   O V E R   50000 S T E P S

 NSTEP =   500000   TIME(PS) =    1500.000  TEMP(K) =   297.38  PRESS =    -7.3
 Etot   =     -5480.3996  EKtot   =      1252.8025  EPtot      =     -6733.2021
 BOND   =         1.5673  ANGLE   =         1.6547  DIHED      =         0.3093
 1-4 NB =         0.0000  1-4 EEL =         2.6739  VDWAALS    =      1006.8834
 EELEC  =     -7746.2907  EHBOND  =         0.0000  RESTRAINT  =         0.0000
 EKCMT  =       624.6001  VIRIAL  =       627.9711  VOLUME     =     21376.7678
                                                    Density    =         0.9863
 DV/DL  =         3.7632
 Ewald error estimate:   0.2016E-03
 ------------------------------------------------------------------------------

      R M S  F L U C T U A T I O N S

 NSTEP =   500000   TIME(PS) =    1500.000  TEMP(K) =     6.43  PRESS =   379.6
 Etot   =        45.7099  EKtot   =        27.0816  EPtot      =        38.2807
 BOND   =         0.9756  ANGLE   =         0.9503  DIHED      =         0.3042
 1-4 NB =         0.0000  1-4 EEL =         0.0779  VDWAALS    =        37.6442
 EELEC  =        61.4468  EHBOND  =         0.0000  RESTRAINT  =         0.0000
 EKCMT  =        19.2789  VIRIAL  =       175.6593  VOLUME     =        60.8102
                                                    Density    =         0.0028
 DV/DL  =         3.4814
 Ewald error estimate:   0.1512E-03
 ------------------------------------------------------------------------------

      A V E R A G E S   O V E R   50000 S T E P S

 NSTEP =   500000   TIME(PS) =    1500.000  TEMP(K) =   297.38  PRESS =    -7.3
 Etot   =     -5480.3996  EKtot   =      1252.8025  EPtot      =     -6733.2021
 BOND   =         1.5673  ANGLE   =         1.6547  DIHED      =         0.3093
 1-4 NB =         0.0000  1-4 EEL =         2.6739  VDWAALS    =      1006.8834
 EELEC  =     -7746.2907  EHBOND  =         0.0000  RESTRAINT  =         0.0000
 EKCMT  =       624.6001  VIRIAL  =       627.9711  VOLUME     =     21376.7678
                                                    Density    =         0.9863
 DV/DL  =         3.7632
 Ewald error estimate:   0.2016E-03
 ------------------------------------------------------------------------------

      R M S  F L U C T U A T I O N S

 NSTEP =   500000   TIME(PS) =    1500.000  TEMP(K) =     6.43  PRESS =   379.6
 Etot   =        45.7099  EKtot   =        27.0816  EPtot      =        38.2807
 BOND   =         0.9756  ANGLE   =         0.9503  DIHED      =         0.3042
 1-4 NB =         0.0000  1-4 EEL =         0.0779  VDWAALS    =        37.6442
 EELEC  =        61.4468  EHBOND  =         0.0000  RESTRAINT  =         0.0000
 EKCMT  =        19.2789  VIRIAL  =       175.6593  VOLUME     =        60.8102
                                                    Density    =         0.0028
 DV/DL  =         3.4814
 Ewald error estimate:   0.1512E-03
 ------------------------------------------------------------------------------

      DV/DL, AVERAGES OVER   50000 STEPS

 NSTEP =   500000   TIME(PS) =    1500.000  TEMP(K) =     6.43  PRESS =     0.0
 Etot   =         0.0000  EKtot   =         0.0000  EPtot      =         3.7632
 BOND   =         0.0000  ANGLE   =         0.0000  DIHED      =         0.0000
 1-4 NB =         0.0000  1-4 EEL =        -3.8198  VDWAALS    =         0.0000
 EELEC  =         7.5830  EHBOND  =         0.0000  RESTRAINT  =         0.0000
 EKCMT  =         0.0000  VIRIAL  =         0.0000  VOLUME     =         0.0000
                                                    Density    =         0.0000
 DV/DL  =         3.7632
 Ewald error estimate:   0.0000E+00
 ------------------------------------------------------------------------------

      A V E R A G E S   O V E R  500000 S T E P S

 NSTEP =   500000   TIME(PS) =    1500.000  TEMP(K) =   297.56  PRESS =     0.9
 Etot   =     -5481.7458  EKtot   =      1253.5632  EPtot      =     -6735.3090
 BOND   =         1.6148  ANGLE   =         1.7708  DIHED      =         0.3067
 1-4 NB =         0.0000  1-4 EEL =         2.6741  VDWAALS    =      1009.8275
 EELEC  =     -7751.5029  EHBOND  =         0.0000  RESTRAINT  =         0.0000
 EKCMT  =       625.3365  VIRIAL  =       624.9009  VOLUME     =     21397.8107
                                                    Density    =         0.9854
 DV/DL  =         3.5878
 Ewald error estimate:   0.2054E-03
 ------------------------------------------------------------------------------

      R M S  F L U C T U A T I O N S

 NSTEP =   500000   TIME(PS) =    1500.000  TEMP(K) =     6.45  PRESS =   386.6
 Etot   =        46.2807  EKtot   =        27.1535  EPtot      =        37.6613
 BOND   =         1.0255  ANGLE   =         1.0261  DIHED      =         0.3073
 1-4 NB =         0.0000  1-4 EEL =         0.0803  VDWAALS    =        37.9647
 EELEC  =        59.9094  EHBOND  =         0.0000  RESTRAINT  =         0.0000
 EKCMT  =        19.3044  VIRIAL  =       178.6169  VOLUME     =        85.9942
                                                    Density    =         0.0040
 DV/DL  =         3.3378
 Ewald error estimate:   0.1553E-03
 ------------------------------------------------------------------------------

      A V E R A G E S   O V E R  500000 S T E P S

 NSTEP =   500000   TIME(PS) =    1500.000  TEMP(K) =   297.56  PRESS =     0.9
 Etot   =     -5481.7458  EKtot   =      1253.5632  EPtot      =     -6735.3090
 BOND   =         1.6148  ANGLE   =         1.7708  DIHED      =         0.3067
 1-4 NB =         0.0000  1-4 EEL =         2.6741  VDWAALS    =      1009.8275
 EELEC  =     -7751.5029  EHBOND  =         0.0000  RESTRAINT  =         0.0000
 EKCMT  =       625.3365  VIRIAL  =       624.9009  VOLUME     =     21397.8107
                                                    Density    =         0.9854
 DV/DL  =         3.5878
 Ewald error estimate:   0.2054E-03
 ------------------------------------------------------------------------------

      R M S  F L U C T U A T I O N S

 NSTEP =   500000   TIME(PS) =    1500.000  TEMP(K) =     6.45  PRESS =   386.6
 Etot   =        46.2807  EKtot   =        27.1535  EPtot      =        37.6613
 BOND   =         1.0255  ANGLE   =         1.0261  DIHED      =         0.3073
 1-4 NB =         0.0000  1-4 EEL =         0.0803  VDWAALS    =        37.9647
 EELEC  =        59.9094  EHBOND  =         0.0000  RESTRAINT  =         0.0000
 EKCMT  =        19.3044  VIRIAL  =       178.6169  VOLUME     =        85.9942
                                                    Density    =         0.0040
 DV/DL  =         3.3378
 Ewald error estimate:   0.1553E-03
 ------------------------------------------------------------------------------

      DV/DL, AVERAGES OVER  500000 STEPS

 NSTEP =   500000   TIME(PS) =    1500.000  TEMP(K) =     6.45  PRESS =     0.0
 Etot   =         0.0000  EKtot   =         0.0000  EPtot      =         3.5878
 BOND   =         0.0000  ANGLE   =         0.0000  DIHED      =         0.0000
 1-4 NB =         0.0000  1-4 EEL =        -3.8201  VDWAALS    =         0.0000
 EELEC  =         7.4079  EHBOND  =         0.0000  RESTRAINT  =         0.0000
 EKCMT  =         0.0000  VIRIAL  =         0.0000  VOLUME     =         0.0000
                                                    Density    =         0.0000
 DV/DL  =         3.5878
 Ewald error estimate:   0.0000E+00
 ------------------------------------------------------------------------------
