-------------------------------------------------------
          Amber 14 SANDER                              2014
          -------------------------------------------------------

  [-O]verwriting output

File Assignments:

 Here is the input file:

MD simulation
 &cntrl
   imin = 0, nstlim = 500000, irest = 1, ntx = 5, dt = 0.001,
   ntt = 3, temp0 = 298.0, gamma_ln = 2.0, ig = -1,
   ntp = 1, pres0 = 1.01325, taup = 2.0,
   ntb = 2,
   ioutfm = 1, iwrap = 1,
   ntwe = 10000, ntwx = 10000, ntpr = 10000, ntwr = 50000, ntave = 50000,

   ntc = 2, ntf = 1,
   noshakemask = ':1,2',

   icfe = 1, ifsc = 0, clambda = 0.3, scalpha = 0.5, scbeta = 12.0,
   logdvdl = 1,
   ifmbar = 1, bar_intervall = 1000, bar_l_min = 0.0, bar_l_max = 1.0,
   bar_l_incr = 0.1,
   timask1 = ':1', timask2 = ':2'
 /
 &ewald
 /

Note: ig = -1. Setting random seed to   934467 based on wallclock time in
      microseconds and disabling the synchronization of random numbers
      between tasks to improve performance.

--------------------------------------------------------------------------------
   1.  RESOURCE   USE:
--------------------------------------------------------------------------------

 getting new box info from bottom of inpcrd
 NATOM  =    2121 NTYPES =       6 NBONH =    2117 MBONA  =       2
 NTHETH =      14 MTHETA =       0 NPHIH =       6 MPHIA  =       0
 NHPARM =       0 NPARM  =       0 NNB   =    2844 NRES   =     705
 NBONA  =       2 NTHETA =       0 NPHIA =       0 NUMBND =       5
 NUMANG =       3 NPTRA  =       1 NATYP =       6 NPHB   =       1
 IFBOX  =       1 NMXRS  =       6 IFCAP =       0 NEXTRA =       0
 NCOPY  =       0

     BOX TYPE: RECTILINEAR

--------------------------------------------------------------------------------
   2.  CONTROL  DATA  FOR  THE  RUN
--------------------------------------------------------------------------------

L0

General flags:
     imin    =       0, nmropt  =       0

Nature and format of input:
     ntx     =       5, irest   =       1, ntrx    =       1

Nature and format of output:
     ntxo    =       1, ntpr    =   10000, ntrx    =       1, ntwr    =   50000
     iwrap   =       1, ntwx    =   10000, ntwv    =       0, ntwe    =   10000
     ioutfm  =       1, ntwprt  =       0, idecomp =       0, rbornstat=      0

Potential function:
     ntf     =       1, ntb     =       2, igb     =       0, nsnb    =      25
     ipol    =       0, gbsa    =       0, iesp    =       0
     dielc   =   1.00000, cut     =   8.00000, intdiel =   1.00000

Frozen or restrained atoms:
     ibelly  =       0, ntr     =       0

Molecular dynamics:
     nstlim  =    500000, nscm    =      1000, nrespa  =         1
     t       =   0.00000, dt      =   0.00100, vlimit  =  20.00000

Langevin dynamics temperature regulation:
     ig      =  934467
     temp0   = 298.00000, tempi   =   0.00000, gamma_ln=   2.00000

Pressure regulation:
     ntp     =       1
     pres0   =   1.01325, comp    =  44.60000, taup    =   2.00000

SHAKE:
     ntc     =       2, jfastw  =       0
     tol     =   0.00001

Free energy options:
     icfe    =       1, ifsc    =       0, klambda =       1
     clambda =  0.3000, scalpha =  0.5000, scbeta  = 12.0000
     sceeorder =       2
     dynlmb =  0.0000 logdvdl =       1

FEP MBAR options:
     ifmbar  =       1,  bar_intervall =     1000
     bar_l_min =0.0000,  bar_l_max =1.0000,  bar_l_incr =0.1000

Ewald parameters:
     verbose =       0, ew_type =       0, nbflag  =       1, use_pme =       1
     vdwmeth =       1, eedmeth =       1, netfrc  =       1
     Box X =   28.074   Box Y =   27.695   Box Z =   27.315
     Alpha =   90.000   Beta  =   90.000   Gamma =   90.000
     NFFT1 =   30       NFFT2 =   30       NFFT3 =   30
     Cutoff=    8.000   Tol   =0.100E-04
     Ewald Coefficient =  0.34864
     Interpolation order =    4

     TI Mask 1 :1; matches      6 atoms
     TI Mask 2 :2; matches      6 atoms
     TI region 1:    2115 atoms
     TI region 2:    2115 atoms

    MBAR - lambda values considered:
      11 total:  0.0000 0.1000 0.2000 0.3000 0.4000 0.5000 0.6000 0.7000 0.8000 0.9000 1.0000
    Extra energies will be computed    500 times.
     Checking for mismatched coordinates.
 Noshake mask :1,2; matches      12 atoms.

--------------------------------------------------------------------------------
   3.  ATOMIC COORDINATES AND VELOCITIES
--------------------------------------------------------------------------------

L0
 begin time read from input coords =   500.000 ps

 Number of triangulated 3-point waters found:      703
   Removing shake constraints from O2    L0    1 -- H6    L0    1
   Removing shake constraints from C1    L0    1 -- H3    L0    1
   Removing shake constraints from C1    L0    1 -- H4    L0    1
   Removing shake constraints from C1    L0    1 -- H5    L0    1
   Removing shake constraints from O2    INT   2 -- H6    INT   2
   Removing shake constraints from C1    INT   2 -- H3    INT   2
   Removing shake constraints from C1    INT   2 -- H4    INT   2
   Removing shake constraints from C1    INT   2 -- H5    INT   2
 Number of shake restraints removed:        8

     Sum of charges for TI region  1 =   0.00000000
     Forcing neutrality...

     Sum of charges for TI region  2 =   0.00000000
     Forcing neutrality...

--------------------------------------------------------------------------------
   4.  RESULTS
 NSTEP =    10000   TIME(PS) =     510.000  TEMP(K) =   286.35  PRESS =   199.9
 Etot   =     -5522.6612  EKtot   =      1206.3533  EPtot      =     -6729.0145
 BOND   =         1.6329  ANGLE   =         3.2509  DIHED      =         0.1339
 1-4 NB =         0.0000  1-4 EEL =         2.5007  VDWAALS    =      1038.6782
 EELEC  =     -7775.2111  EHBOND  =         0.0000  RESTRAINT  =         0.0000
 EKCMT  =       604.8917  VIRIAL  =       512.3551  VOLUME     =     21438.7120
                                                    Density    =         0.9835
 DV/DL  =         6.1814
 Ewald error estimate:   0.1788E-03
 ------------------------------------------------------------------------------

      A V E R A G E S   O V E R   50000 S T E P S

 NSTEP =    50000   TIME(PS) =     550.000  TEMP(K) =   297.23  PRESS =    12.7
 Etot   =     -5488.7671  EKtot   =      1252.1915  EPtot      =     -6740.9586
 BOND   =         1.5774  ANGLE   =         1.6689  DIHED      =         0.3051
 1-4 NB =         0.0000  1-4 EEL =         2.6739  VDWAALS    =      1014.3970
 EELEC  =     -7761.5810  EHBOND  =         0.0000  RESTRAINT  =         0.0000
 EKCMT  =       623.5243  VIRIAL  =       617.6486  VOLUME     =     21402.1291
                                                    Density    =         0.9852
 DV/DL  =         3.3489
 Ewald error estimate:   0.2129E-03
 ------------------------------------------------------------------------------

      R M S  F L U C T U A T I O N S

 NSTEP =    50000   TIME(PS) =     550.000  TEMP(K) =     6.60  PRESS =   379.7
 Etot   =        49.3174  EKtot   =        27.7876  EPtot      =        39.5750
 BOND   =         0.9330  ANGLE   =         0.9762  DIHED      =         0.3096
 1-4 NB =         0.0000  1-4 EEL =         0.0808  VDWAALS    =        39.2640
 EELEC  =        65.5106  EHBOND  =         0.0000  RESTRAINT  =         0.0000
 EKCMT  =        19.3527  VIRIAL  =       176.4023  VOLUME     =        75.8584
                                                    Density    =         0.0035
 DV/DL  =         3.4531
 Ewald error estimate:   0.1594E-03
 ------------------------------------------------------------------------------

      A V E R A G E S   O V E R   50000 S T E P S

 NSTEP =    50000   TIME(PS) =     550.000  TEMP(K) =   297.23  PRESS =    12.7
 Etot   =     -5488.7671  EKtot   =      1252.1915  EPtot      =     -6740.9586
 BOND   =         1.5774  ANGLE   =         1.6689  DIHED      =         0.3051
 1-4 NB =         0.0000  1-4 EEL =         2.6739  VDWAALS    =      1014.3970
 EELEC  =     -7761.5810  EHBOND  =         0.0000  RESTRAINT  =         0.0000
 EKCMT  =       623.5243  VIRIAL  =       617.6486  VOLUME     =     21402.1291
                                                    Density    =         0.9852
 DV/DL  =         3.3489
 Ewald error estimate:   0.2129E-03
 ------------------------------------------------------------------------------

      R M S  F L U C T U A T I O N S

 NSTEP =    50000   TIME(PS) =     550.000  TEMP(K) =     6.60  PRESS =   379.7
 Etot   =        49.3174  EKtot   =        27.7876  EPtot      =        39.5750
 BOND   =         0.9330  ANGLE   =         0.9762  DIHED      =         0.3096
 1-4 NB =         0.0000  1-4 EEL =         0.0808  VDWAALS    =        39.2640
 EELEC  =        65.5106  EHBOND  =         0.0000  RESTRAINT  =         0.0000
 EKCMT  =        19.3527  VIRIAL  =       176.4023  VOLUME     =        75.8584
                                                    Density    =         0.0035
 DV/DL  =         3.4531
 Ewald error estimate:   0.1594E-03
 ------------------------------------------------------------------------------

      DV/DL, AVERAGES OVER   50000 STEPS

 NSTEP =    50000   TIME(PS) =     550.000  TEMP(K) =     6.60  PRESS =     0.0
 Etot   =         0.0000  EKtot   =         0.0000  EPtot      =         3.3489
 BOND   =         0.0000  ANGLE   =         0.0000  DIHED      =         0.0000
 1-4 NB =         0.0000  1-4 EEL =        -3.8199  VDWAALS    =         0.0000
 EELEC  =         7.1688  EHBOND  =         0.0000  RESTRAINT  =         0.0000
 EKCMT  =         0.0000  VIRIAL  =         0.0000  VOLUME     =         0.0000
                                                    Density    =         0.0000
 DV/DL  =         3.3489
 Ewald error estimate:   0.0000E+00
 ------------------------------------------------------------------------------

      A V E R A G E S   O V E R   50000 S T E P S

 NSTEP =   100000   TIME(PS) =     600.000  TEMP(K) =   297.93  PRESS =    -3.4
 Etot   =     -5478.0427  EKtot   =      1255.1143  EPtot      =     -6733.1570
 BOND   =         1.6694  ANGLE   =         1.6288  DIHED      =         0.3035
 1-4 NB =         0.0000  1-4 EEL =         2.6749  VDWAALS    =      1009.8968
 EELEC  =     -7749.3305  EHBOND  =         0.0000  RESTRAINT  =         0.0000
 EKCMT  =       625.9263  VIRIAL  =       627.5177  VOLUME     =     21409.5184
                                                    Density    =         0.9848
 DV/DL  =         4.0291
 Ewald error estimate:   0.2030E-03
 ------------------------------------------------------------------------------

      R M S  F L U C T U A T I O N S

 NSTEP =   100000   TIME(PS) =     600.000  TEMP(K) =     6.32  PRESS =   387.0
 Etot   =        42.5169  EKtot   =        26.6421  EPtot      =        34.6892
 BOND   =         1.0614  ANGLE   =         0.9740  DIHED      =         0.3067
 1-4 NB =         0.0000  1-4 EEL =         0.0789  VDWAALS    =        37.0573
 EELEC  =        56.2700  EHBOND  =         0.0000  RESTRAINT  =         0.0000
 EKCMT  =        19.5940  VIRIAL  =       178.5498  VOLUME     =        73.6996
                                                    Density    =         0.0034
 DV/DL  =         3.3983
 Ewald error estimate:   0.1543E-03
 ------------------------------------------------------------------------------

      A V E R A G E S   O V E R   50000 S T E P S

 NSTEP =   100000   TIME(PS) =     600.000  TEMP(K) =   297.93  PRESS =    -3.4
 Etot   =     -5478.0427  EKtot   =      1255.1143  EPtot      =     -6733.1570
 BOND   =         1.6694  ANGLE   =         1.6288  DIHED      =         0.3035
 1-4 NB =         0.0000  1-4 EEL =         2.6749  VDWAALS    =      1009.8968
 EELEC  =     -7749.3305  EHBOND  =         0.0000  RESTRAINT  =         0.0000
 EKCMT  =       625.9263  VIRIAL  =       627.5177  VOLUME     =     21409.5184
                                                    Density    =         0.9848
 DV/DL  =         4.0291
 Ewald error estimate:   0.2030E-03
 ------------------------------------------------------------------------------

      R M S  F L U C T U A T I O N S

 NSTEP =   100000   TIME(PS) =     600.000  TEMP(K) =     6.32  PRESS =   387.0
 Etot   =        42.5169  EKtot   =        26.6421  EPtot      =        34.6892
 BOND   =         1.0614  ANGLE   =         0.9740  DIHED      =         0.3067
 1-4 NB =         0.0000  1-4 EEL =         0.0789  VDWAALS    =        37.0573
 EELEC  =        56.2700  EHBOND  =         0.0000  RESTRAINT  =         0.0000
 EKCMT  =        19.5940  VIRIAL  =       178.5498  VOLUME     =        73.6996
                                                    Density    =         0.0034
 DV/DL  =         3.3983
 Ewald error estimate:   0.1543E-03
 ------------------------------------------------------------------------------

      DV/DL, AVERAGES OVER   50000 STEPS

 NSTEP =   100000   TIME(PS) =     600.000  TEMP(K) =     6.32  PRESS =     0.0
 Etot   =         0.0000  EKtot   =         0.0000  EPtot      =         4.0291
 BOND   =         0.0000  ANGLE   =         0.0000  DIHED      =         0.0000
 1-4 NB =         0.0000  1-4 EEL =        -3.8213  VDWAALS    =         0.0000
 EELEC  =         7.8504  EHBOND  =         0.0000  RESTRAINT  =         0.0000
 EKCMT  =         0.0000  VIRIAL  =         0.0000  VOLUME     =         0.0000
                                                    Density    =         0.0000
 DV/DL  =         4.0291
 Ewald error estimate:   0.0000E+00
 ------------------------------------------------------------------------------

      A V E R A G E S   O V E R   50000 S T E P S

 NSTEP =   500000   TIME(PS) =    1000.000  TEMP(K) =   298.01  PRESS =     4.5
 Etot   =     -5475.9003  EKtot   =      1255.4529  EPtot      =     -6731.3532
 BOND   =         1.5814  ANGLE   =         1.7788  DIHED      =         0.3081
 1-4 NB =         0.0000  1-4 EEL =         2.6735  VDWAALS    =      1007.7151
 EELEC  =     -7745.4101  EHBOND  =         0.0000  RESTRAINT  =         0.0000
 EKCMT  =       624.8271  VIRIAL  =       622.7667  VOLUME     =     21388.4161
                                                    Density    =         0.9858
 DV/DL  =         3.5336
 Ewald error estimate:   0.1980E-03
 ------------------------------------------------------------------------------

      R M S  F L U C T U A T I O N S

 NSTEP =   500000   TIME(PS) =    1000.000  TEMP(K) =     6.31  PRESS =   393.4
 Etot   =        44.1505  EKtot   =        26.5657  EPtot      =        36.5797
 BOND   =         1.0315  ANGLE   =         1.0626  DIHED      =         0.3116
 1-4 NB =         0.0000  1-4 EEL =         0.0780  VDWAALS    =        38.2731
 EELEC  =        58.7716  EHBOND  =         0.0000  RESTRAINT  =         0.0000
 EKCMT  =        18.6514  VIRIAL  =       181.5949  VOLUME     =        78.3714
                                                    Density    =         0.0036
 DV/DL  =         3.2769
 Ewald error estimate:   0.1489E-03
 ------------------------------------------------------------------------------

      A V E R A G E S   O V E R   50000 S T E P S

 NSTEP =   500000   TIME(PS) =    1000.000  TEMP(K) =   298.01  PRESS =     4.5
 Etot   =     -5475.9003  EKtot   =      1255.4529  EPtot      =     -6731.3532
 BOND   =         1.5814  ANGLE   =         1.7788  DIHED      =         0.3081
 1-4 NB =         0.0000  1-4 EEL =         2.6735  VDWAALS    =      1007.7151
 EELEC  =     -7745.4101  EHBOND  =         0.0000  RESTRAINT  =         0.0000
 EKCMT  =       624.8271  VIRIAL  =       622.7667  VOLUME     =     21388.4161
                                                    Density    =         0.9858
 DV/DL  =         3.5336
 Ewald error estimate:   0.1980E-03
 ------------------------------------------------------------------------------

      R M S  F L U C T U A T I O N S

 NSTEP =   500000   TIME(PS) =    1000.000  TEMP(K) =     6.31  PRESS =   393.4
 Etot   =        44.1505  EKtot   =        26.5657  EPtot      =        36.5797
 BOND   =         1.0315  ANGLE   =         1.0626  DIHED      =         0.3116
 1-4 NB =         0.0000  1-4 EEL =         0.0780  VDWAALS    =        38.2731
 EELEC  =        58.7716  EHBOND  =         0.0000  RESTRAINT  =         0.0000
 EKCMT  =        18.6514  VIRIAL  =       181.5949  VOLUME     =        78.3714
                                                    Density    =         0.0036
 DV/DL  =         3.2769
 Ewald error estimate:   0.1489E-03
 ------------------------------------------------------------------------------

      DV/DL, AVERAGES OVER   50000 STEPS

 NSTEP =   500000   TIME(PS) =    1000.000  TEMP(K) =     6.31  PRESS =     0.0
 Etot   =         0.0000  EKtot   =         0.0000  EPtot      =         3.5336
 BOND   =         0.0000  ANGLE   =         0.0000  DIHED      =         0.0000
 1-4 NB =         0.0000  1-4 EEL =        -3.8193  VDWAALS    =         0.0000
 EELEC  =         7.3528  EHBOND  =         0.0000  RESTRAINT  =         0.0000
 EKCMT  =         0.0000  VIRIAL  =         0.0000  VOLUME     =         0.0000
                                                    Density    =         0.0000
 DV/DL  =         3.5336
 Ewald error estimate:   0.0000E+00
 ------------------------------------------------------------------------------

      A V E R A G E S   O V E R  500000 S T E P S

 NSTEP =   500000   TIME(PS) =    1000.000  TEMP(K) =   297.59  PRESS =     1.6
 Etot   =     -5482.6048  EKtot   =      1253.7203  EPtot      =     -6736.3251
 BOND   =         1.5855  ANGLE   =         1.7489  DIHED      =         0.3064
 1-4 NB =         0.0000  1-4 EEL =         2.6744  VDWAALS    =      1009.7128
 EELEC  =     -7752.3531  EHBOND  =         0.0000  RESTRAINT  =         0.0000
 EKCMT  =       625.6452  VIRIAL  =       624.9144  VOLUME     =     21387.5551
                                                    Density    =         0.9859
 DV/DL  =         3.6902
 Ewald error estimate:   0.2066E-03
 ------------------------------------------------------------------------------

      R M S  F L U C T U A T I O N S

 NSTEP =   500000   TIME(PS) =    1000.000  TEMP(K) =     6.45  PRESS =   384.4
 Etot   =        48.0151  EKtot   =        27.1700  EPtot      =        38.7318
 BOND   =         1.0124  ANGLE   =         1.0262  DIHED      =         0.3079
 1-4 NB =         0.0000  1-4 EEL =         0.0791  VDWAALS    =        38.0088
 EELEC  =        61.3910  EHBOND  =         0.0000  RESTRAINT  =         0.0000
 EKCMT  =        19.1576  VIRIAL  =       177.7357  VOLUME     =        82.8631
                                                    Density    =         0.0038
 DV/DL  =         3.3319
 Ewald error estimate:   0.1560E-03
 ------------------------------------------------------------------------------

      A V E R A G E S   O V E R  500000 S T E P S

 NSTEP =   500000   TIME(PS) =    1000.000  TEMP(K) =   297.59  PRESS =     1.6
 Etot   =     -5482.6048  EKtot   =      1253.7203  EPtot      =     -6736.3251
 BOND   =         1.5855  ANGLE   =         1.7489  DIHED      =         0.3064
 1-4 NB =         0.0000  1-4 EEL =         2.6744  VDWAALS    =      1009.7128
 EELEC  =     -7752.3531  EHBOND  =         0.0000  RESTRAINT  =         0.0000
 EKCMT  =       625.6452  VIRIAL  =       624.9144  VOLUME     =     21387.5551
                                                    Density    =         0.9859
 DV/DL  =         3.6902
 Ewald error estimate:   0.2066E-03
 ------------------------------------------------------------------------------

      R M S  F L U C T U A T I O N S

 NSTEP =   500000   TIME(PS) =    1000.000  TEMP(K) =     6.45  PRESS =   384.4
 Etot   =        48.0151  EKtot   =        27.1700  EPtot      =        38.7318
 BOND   =         1.0124  ANGLE   =         1.0262  DIHED      =         0.3079
 1-4 NB =         0.0000  1-4 EEL =         0.0791  VDWAALS    =        38.0088
 EELEC  =        61.3910  EHBOND  =         0.0000  RESTRAINT  =         0.0000
 EKCMT  =        19.1576  VIRIAL  =       177.7357  VOLUME     =        82.8631
                                                    Density    =         0.0038
 DV/DL  =         3.3319
 Ewald error estimate:   0.1560E-03
 ------------------------------------------------------------------------------

      DV/DL, AVERAGES OVER  500000 STEPS

 NSTEP =   500000   TIME(PS) =    1000.000  TEMP(K) =     6.45  PRESS =     0.0
 Etot   =         0.0000  EKtot   =         0.0000  EPtot      =         3.6902
 BOND   =         0.0000  ANGLE   =         0.0000  DIHED      =         0.0000
 1-4 NB =         0.0000  1-4 EEL =        -3.8206  VDWAALS    =         0.0000
 EELEC  =         7.5108  EHBOND  =         0.0000  RESTRAINT  =         0.0000
 EKCMT  =         0.0000  VIRIAL  =         0.0000  VOLUME     =         0.0000
                                                    Density    =         0.0000
 DV/DL  =         3.6902
 Ewald error estimate:   0.0000E+00
 ------------------------------------------------------------------------------
