-------------------------------------------------------
          Amber 14 SANDER                              2014
          -------------------------------------------------------

  [-O]verwriting output

File Assignments:

 Here is the input file:

MD simulation
 &cntrl
   imin = 0, nstlim = 500000, irest = 1, ntx = 5, dt = 0.001,
   ntt = 3, temp0 = 298.0, gamma_ln = 2.0, ig = -1,
   ntp = 1, pres0 = 1.01325, taup = 2.0,
   ntb = 2,
   ioutfm = 1, iwrap = 1,
   ntwe = 10000, ntwx = 10000, ntpr = 10000, ntwr = 50000, ntave = 50000,

   ntc = 2, ntf = 1,
   noshakemask = ':1,2',

   icfe = 1, ifsc = 0, clambda = 1.0, scalpha = 0.5, scbeta = 12.0,
   logdvdl = 1,
   ifmbar = 1, bar_intervall = 1000, bar_l_min = 0.0, bar_l_max = 1.0,
   bar_l_incr = 0.1,
   timask1 = ':1', timask2 = ':2'
 /
 &ewald
 /

Note: ig = -1. Setting random seed to   195583 based on wallclock time in
      microseconds and disabling the synchronization of random numbers
      between tasks to improve performance.

--------------------------------------------------------------------------------
   1.  RESOURCE   USE:
--------------------------------------------------------------------------------

 getting new box info from bottom of inpcrd
 NATOM  =    2121 NTYPES =       6 NBONH =    2117 MBONA  =       2
 NTHETH =      14 MTHETA =       0 NPHIH =       6 MPHIA  =       0
 NHPARM =       0 NPARM  =       0 NNB   =    2844 NRES   =     705
 NBONA  =       2 NTHETA =       0 NPHIA =       0 NUMBND =       5
 NUMANG =       3 NPTRA  =       1 NATYP =       6 NPHB   =       1
 IFBOX  =       1 NMXRS  =       6 IFCAP =       0 NEXTRA =       0
 NCOPY  =       0

     BOX TYPE: RECTILINEAR

--------------------------------------------------------------------------------
   2.  CONTROL  DATA  FOR  THE  RUN
--------------------------------------------------------------------------------

L0

General flags:
     imin    =       0, nmropt  =       0

Nature and format of input:
     ntx     =       5, irest   =       1, ntrx    =       1

Nature and format of output:
     ntxo    =       1, ntpr    =   10000, ntrx    =       1, ntwr    =   50000
     iwrap   =       1, ntwx    =   10000, ntwv    =       0, ntwe    =   10000
     ioutfm  =       1, ntwprt  =       0, idecomp =       0, rbornstat=      0

Potential function:
     ntf     =       1, ntb     =       2, igb     =       0, nsnb    =      25
     ipol    =       0, gbsa    =       0, iesp    =       0
     dielc   =   1.00000, cut     =   8.00000, intdiel =   1.00000

Frozen or restrained atoms:
     ibelly  =       0, ntr     =       0

Molecular dynamics:
     nstlim  =    500000, nscm    =      1000, nrespa  =         1
     t       =   0.00000, dt      =   0.00100, vlimit  =  20.00000

Langevin dynamics temperature regulation:
     ig      =  195583
     temp0   = 298.00000, tempi   =   0.00000, gamma_ln=   2.00000

Pressure regulation:
     ntp     =       1
     pres0   =   1.01325, comp    =  44.60000, taup    =   2.00000

SHAKE:
     ntc     =       2, jfastw  =       0
     tol     =   0.00001

Free energy options:
     icfe    =       1, ifsc    =       0, klambda =       1
     clambda =  1.0000, scalpha =  0.5000, scbeta  = 12.0000
     sceeorder =       2
     dynlmb =  0.0000 logdvdl =       1

FEP MBAR options:
     ifmbar  =       1,  bar_intervall =     1000
     bar_l_min =0.0000,  bar_l_max =1.0000,  bar_l_incr =0.1000

Ewald parameters:
     verbose =       0, ew_type =       0, nbflag  =       1, use_pme =       1
     vdwmeth =       1, eedmeth =       1, netfrc  =       1
     Box X =   28.141   Box Y =   27.761   Box Z =   27.380
     Alpha =   90.000   Beta  =   90.000   Gamma =   90.000
     NFFT1 =   30       NFFT2 =   30       NFFT3 =   30
     Cutoff=    8.000   Tol   =0.100E-04
     Ewald Coefficient =  0.34864
     Interpolation order =    4

     TI Mask 1 :1; matches      6 atoms
     TI Mask 2 :2; matches      6 atoms
     TI region 1:    2115 atoms
     TI region 2:    2115 atoms

    MBAR - lambda values considered:
      11 total:  0.0000 0.1000 0.2000 0.3000 0.4000 0.5000 0.6000 0.7000 0.8000 0.9000 1.0000
    Extra energies will be computed    500 times.
     Checking for mismatched coordinates.
 Noshake mask :1,2; matches      12 atoms.

--------------------------------------------------------------------------------
   3.  ATOMIC COORDINATES AND VELOCITIES
--------------------------------------------------------------------------------

L0
 begin time read from input coords =  1000.000 ps

 Number of triangulated 3-point waters found:      703
   Removing shake constraints from O2    L0    1 -- H6    L0    1
   Removing shake constraints from C1    L0    1 -- H3    L0    1
   Removing shake constraints from C1    L0    1 -- H4    L0    1
   Removing shake constraints from C1    L0    1 -- H5    L0    1
   Removing shake constraints from O2    INT   2 -- H6    INT   2
   Removing shake constraints from C1    INT   2 -- H3    INT   2
   Removing shake constraints from C1    INT   2 -- H4    INT   2
   Removing shake constraints from C1    INT   2 -- H5    INT   2
 Number of shake restraints removed:        8

     Sum of charges for TI region  1 =   0.00000000
     Forcing neutrality...

     Sum of charges for TI region  2 =   0.00000000
     Forcing neutrality...

--------------------------------------------------------------------------------
   4.  RESULTS
 NSTEP =    10000   TIME(PS) =    1010.000  TEMP(K) =   298.79  PRESS =   282.1
 Etot   =     -5517.8778  EKtot   =      1258.7527  EPtot      =     -6776.6305
 BOND   =         1.9043  ANGLE   =         0.4463  DIHED      =         0.0109
 1-4 NB =         0.0000  1-4 EEL =         0.0000  VDWAALS    =      1064.7476
 EELEC  =     -7843.7395  EHBOND  =         0.0000  RESTRAINT  =         0.0000
 EKCMT  =       635.6637  VIRIAL  =       504.9427  VOLUME     =     21464.5033
                                                    Density    =         0.9823
 DV/DL  =        -6.9121
 Ewald error estimate:   0.3004E-03
 ------------------------------------------------------------------------------

      A V E R A G E S   O V E R   50000 S T E P S

 NSTEP =    50000   TIME(PS) =    1050.000  TEMP(K) =   298.55  PRESS =     5.1
 Etot   =     -5470.9512  EKtot   =      1257.7652  EPtot      =     -6728.7164
 BOND   =         1.6368  ANGLE   =         1.7850  DIHED      =         0.3135
 1-4 NB =         0.0000  1-4 EEL =         0.0000  VDWAALS    =      1010.4345
 EELEC  =     -7742.8863  EHBOND  =         0.0000  RESTRAINT  =         0.0000
 EKCMT  =       627.8273  VIRIAL  =       625.4710  VOLUME     =     21457.1062
                                                    Density    =         0.9827
 DV/DL  =        -3.9785
 Ewald error estimate:   0.2153E-03
 ------------------------------------------------------------------------------

      R M S  F L U C T U A T I O N S

 NSTEP =    50000   TIME(PS) =    1050.000  TEMP(K) =     6.22  PRESS =   367.4
 Etot   =        45.1430  EKtot   =        26.2109  EPtot      =        37.4342
 BOND   =         1.0225  ANGLE   =         1.0135  DIHED      =         0.2995
 1-4 NB =         0.0000  1-4 EEL =         0.0000  VDWAALS    =        36.0664
 EELEC  =        57.8685  EHBOND  =         0.0000  RESTRAINT  =         0.0000
 EKCMT  =        19.2004  VIRIAL  =       170.1621  VOLUME     =        85.7518
                                                    Density    =         0.0039
 DV/DL  =         2.1038
 Ewald error estimate:   0.1620E-03
 ------------------------------------------------------------------------------

      A V E R A G E S   O V E R   50000 S T E P S

 NSTEP =    50000   TIME(PS) =    1050.000  TEMP(K) =   298.55  PRESS =     5.1
 Etot   =     -5470.9512  EKtot   =      1257.7652  EPtot      =     -6728.7164
 BOND   =         1.6368  ANGLE   =         1.7850  DIHED      =         0.3135
 1-4 NB =         0.0000  1-4 EEL =         0.0000  VDWAALS    =      1010.4345
 EELEC  =     -7742.8863  EHBOND  =         0.0000  RESTRAINT  =         0.0000
 EKCMT  =       627.8273  VIRIAL  =       625.4710  VOLUME     =     21457.1062
                                                    Density    =         0.9827
 DV/DL  =        -3.9785
 Ewald error estimate:   0.2153E-03
 ------------------------------------------------------------------------------

      R M S  F L U C T U A T I O N S

 NSTEP =    50000   TIME(PS) =    1050.000  TEMP(K) =     6.22  PRESS =   367.4
 Etot   =        45.1430  EKtot   =        26.2109  EPtot      =        37.4342
 BOND   =         1.0225  ANGLE   =         1.0135  DIHED      =         0.2995
 1-4 NB =         0.0000  1-4 EEL =         0.0000  VDWAALS    =        36.0664
 EELEC  =        57.8685  EHBOND  =         0.0000  RESTRAINT  =         0.0000
 EKCMT  =        19.2004  VIRIAL  =       170.1621  VOLUME     =        85.7518
                                                    Density    =         0.0039
 DV/DL  =         2.1038
 Ewald error estimate:   0.1620E-03
 ------------------------------------------------------------------------------

      DV/DL, AVERAGES OVER   50000 STEPS

 NSTEP =    50000   TIME(PS) =    1050.000  TEMP(K) =     6.22  PRESS =     0.0
 Etot   =         0.0000  EKtot   =         0.0000  EPtot      =        -3.9785
 BOND   =         0.0000  ANGLE   =         0.0000  DIHED      =         0.0000
 1-4 NB =         0.0000  1-4 EEL =        -3.8298  VDWAALS    =         0.0000
 EELEC  =        -0.1486  EHBOND  =         0.0000  RESTRAINT  =         0.0000
 EKCMT  =         0.0000  VIRIAL  =         0.0000  VOLUME     =         0.0000
                                                    Density    =         0.0000
 DV/DL  =        -3.9785
 Ewald error estimate:   0.0000E+00
 ------------------------------------------------------------------------------

      A V E R A G E S   O V E R   50000 S T E P S

 NSTEP =   100000   TIME(PS) =    1100.000  TEMP(K) =   296.62  PRESS =    -1.0
 Etot   =     -5494.3480  EKtot   =      1249.6081  EPtot      =     -6743.9561
 BOND   =         1.4931  ANGLE   =         1.8746  DIHED      =         0.3186
 1-4 NB =         0.0000  1-4 EEL =         0.0000  VDWAALS    =      1013.5884
 EELEC  =     -7761.2307  EHBOND  =         0.0000  RESTRAINT  =         0.0000
 EKCMT  =       623.6326  VIRIAL  =       624.0946  VOLUME     =     21422.8330
                                                    Density    =         0.9842
 DV/DL  =        -3.8791
 Ewald error estimate:   0.2113E-03
 ------------------------------------------------------------------------------

      R M S  F L U C T U A T I O N S

 NSTEP =   100000   TIME(PS) =    1100.000  TEMP(K) =     6.25  PRESS =   382.4
 Etot   =        47.1506  EKtot   =        26.3231  EPtot      =        39.0120
 BOND   =         0.9511  ANGLE   =         1.1308  DIHED      =         0.3135
 1-4 NB =         0.0000  1-4 EEL =         0.0000  VDWAALS    =        36.9562
 EELEC  =        59.6542  EHBOND  =         0.0000  RESTRAINT  =         0.0000
 EKCMT  =        18.6931  VIRIAL  =       176.6912  VOLUME     =        78.3202
                                                    Density    =         0.0036
 DV/DL  =         2.1470
 Ewald error estimate:   0.1589E-03
 ------------------------------------------------------------------------------

      A V E R A G E S   O V E R   50000 S T E P S

 NSTEP =   100000   TIME(PS) =    1100.000  TEMP(K) =   296.62  PRESS =    -1.0
 Etot   =     -5494.3480  EKtot   =      1249.6081  EPtot      =     -6743.9561
 BOND   =         1.4931  ANGLE   =         1.8746  DIHED      =         0.3186
 1-4 NB =         0.0000  1-4 EEL =         0.0000  VDWAALS    =      1013.5884
 EELEC  =     -7761.2307  EHBOND  =         0.0000  RESTRAINT  =         0.0000
 EKCMT  =       623.6326  VIRIAL  =       624.0946  VOLUME     =     21422.8330
                                                    Density    =         0.9842
 DV/DL  =        -3.8791
 Ewald error estimate:   0.2113E-03
 ------------------------------------------------------------------------------

      R M S  F L U C T U A T I O N S

 NSTEP =   100000   TIME(PS) =    1100.000  TEMP(K) =     6.25  PRESS =   382.4
 Etot   =        47.1506  EKtot   =        26.3231  EPtot      =        39.0120
 BOND   =         0.9511  ANGLE   =         1.1308  DIHED      =         0.3135
 1-4 NB =         0.0000  1-4 EEL =         0.0000  VDWAALS    =        36.9562
 EELEC  =        59.6542  EHBOND  =         0.0000  RESTRAINT  =         0.0000
 EKCMT  =        18.6931  VIRIAL  =       176.6912  VOLUME     =        78.3202
                                                    Density    =         0.0036
 DV/DL  =         2.1470
 Ewald error estimate:   0.1589E-03
 ------------------------------------------------------------------------------

      DV/DL, AVERAGES OVER   50000 STEPS

 NSTEP =   100000   TIME(PS) =    1100.000  TEMP(K) =     6.25  PRESS =     0.0
 Etot   =         0.0000  EKtot   =         0.0000  EPtot      =        -3.8791
 BOND   =         0.0000  ANGLE   =         0.0000  DIHED      =         0.0000
 1-4 NB =         0.0000  1-4 EEL =        -3.8304  VDWAALS    =         0.0000
 EELEC  =        -0.0487  EHBOND  =         0.0000  RESTRAINT  =         0.0000
 EKCMT  =         0.0000  VIRIAL  =         0.0000  VOLUME     =         0.0000
                                                    Density    =         0.0000
 DV/DL  =        -3.8791
 Ewald error estimate:   0.0000E+00
 ------------------------------------------------------------------------------

      A V E R A G E S   O V E R   50000 S T E P S

 NSTEP =   500000   TIME(PS) =    1500.000  TEMP(K) =   298.51  PRESS =     2.5
 Etot   =     -5466.3431  EKtot   =      1257.5612  EPtot      =     -6723.9043
 BOND   =         1.5378  ANGLE   =         1.6734  DIHED      =         0.2961
 1-4 NB =         0.0000  1-4 EEL =         0.0000  VDWAALS    =      1004.2937
 EELEC  =     -7731.7053  EHBOND  =         0.0000  RESTRAINT  =         0.0000
 EKCMT  =       627.3609  VIRIAL  =       626.1940  VOLUME     =     21412.4268
                                                    Density    =         0.9847
 DV/DL  =        -3.8719
 Ewald error estimate:   0.2062E-03
 ------------------------------------------------------------------------------

      R M S  F L U C T U A T I O N S

 NSTEP =   500000   TIME(PS) =    1500.000  TEMP(K) =     6.39  PRESS =   389.1
 Etot   =        44.6211  EKtot   =        26.9301  EPtot      =        37.3921
 BOND   =         0.9603  ANGLE   =         0.9332  DIHED      =         0.3070
 1-4 NB =         0.0000  1-4 EEL =         0.0000  VDWAALS    =        38.5978
 EELEC  =        60.3190  EHBOND  =         0.0000  RESTRAINT  =         0.0000
 EKCMT  =        19.0657  VIRIAL  =       180.8250  VOLUME     =        89.7905
                                                    Density    =         0.0041
 DV/DL  =         2.0837
 Ewald error estimate:   0.1541E-03
 ------------------------------------------------------------------------------

      A V E R A G E S   O V E R   50000 S T E P S

 NSTEP =   500000   TIME(PS) =    1500.000  TEMP(K) =   298.51  PRESS =     2.5
 Etot   =     -5466.3431  EKtot   =      1257.5612  EPtot      =     -6723.9043
 BOND   =         1.5378  ANGLE   =         1.6734  DIHED      =         0.2961
 1-4 NB =         0.0000  1-4 EEL =         0.0000  VDWAALS    =      1004.2937
 EELEC  =     -7731.7053  EHBOND  =         0.0000  RESTRAINT  =         0.0000
 EKCMT  =       627.3609  VIRIAL  =       626.1940  VOLUME     =     21412.4268
                                                    Density    =         0.9847
 DV/DL  =        -3.8719
 Ewald error estimate:   0.2062E-03
 ------------------------------------------------------------------------------

      R M S  F L U C T U A T I O N S

 NSTEP =   500000   TIME(PS) =    1500.000  TEMP(K) =     6.39  PRESS =   389.1
 Etot   =        44.6211  EKtot   =        26.9301  EPtot      =        37.3921
 BOND   =         0.9603  ANGLE   =         0.9332  DIHED      =         0.3070
 1-4 NB =         0.0000  1-4 EEL =         0.0000  VDWAALS    =        38.5978
 EELEC  =        60.3190  EHBOND  =         0.0000  RESTRAINT  =         0.0000
 EKCMT  =        19.0657  VIRIAL  =       180.8250  VOLUME     =        89.7905
                                                    Density    =         0.0041
 DV/DL  =         2.0837
 Ewald error estimate:   0.1541E-03
 ------------------------------------------------------------------------------

      DV/DL, AVERAGES OVER   50000 STEPS

 NSTEP =   500000   TIME(PS) =    1500.000  TEMP(K) =     6.39  PRESS =     0.0
 Etot   =         0.0000  EKtot   =         0.0000  EPtot      =        -3.8719
 BOND   =         0.0000  ANGLE   =         0.0000  DIHED      =         0.0000
 1-4 NB =         0.0000  1-4 EEL =        -3.8288  VDWAALS    =         0.0000
 EELEC  =        -0.0431  EHBOND  =         0.0000  RESTRAINT  =         0.0000
 EKCMT  =         0.0000  VIRIAL  =         0.0000  VOLUME     =         0.0000
                                                    Density    =         0.0000
 DV/DL  =        -3.8719
 Ewald error estimate:   0.0000E+00
 ------------------------------------------------------------------------------

      A V E R A G E S   O V E R  500000 S T E P S

 NSTEP =   500000   TIME(PS) =    1500.000  TEMP(K) =   297.88  PRESS =     1.2
 Etot   =     -5477.1723  EKtot   =      1254.9195  EPtot      =     -6732.0919
 BOND   =         1.5753  ANGLE   =         1.8278  DIHED      =         0.3026
 1-4 NB =         0.0000  1-4 EEL =         0.0000  VDWAALS    =      1008.4549
 EELEC  =     -7744.2524  EHBOND  =         0.0000  RESTRAINT  =         0.0000
 EKCMT  =       626.3657  VIRIAL  =       625.8177  VOLUME     =     21415.1917
                                                    Density    =         0.9846
 DV/DL  =        -3.8707
 Ewald error estimate:   0.2085E-03
 ------------------------------------------------------------------------------

      R M S  F L U C T U A T I O N S

 NSTEP =   500000   TIME(PS) =    1500.000  TEMP(K) =     6.36  PRESS =   386.5
 Etot   =        46.2692  EKtot   =        26.7833  EPtot      =        37.8126
 BOND   =         0.9940  ANGLE   =         1.0841  DIHED      =         0.3056
 1-4 NB =         0.0000  1-4 EEL =         0.0000  VDWAALS    =        38.0699
 EELEC  =        60.3217  EHBOND  =         0.0000  RESTRAINT  =         0.0000
 EKCMT  =        19.1706  VIRIAL  =       178.5226  VOLUME     =        84.3518
                                                    Density    =         0.0039
 DV/DL  =         2.1387
 Ewald error estimate:   0.1563E-03
 ------------------------------------------------------------------------------

      A V E R A G E S   O V E R  500000 S T E P S

 NSTEP =   500000   TIME(PS) =    1500.000  TEMP(K) =   297.88  PRESS =     1.2
 Etot   =     -5477.1723  EKtot   =      1254.9195  EPtot      =     -6732.0919
 BOND   =         1.5753  ANGLE   =         1.8278  DIHED      =         0.3026
 1-4 NB =         0.0000  1-4 EEL =         0.0000  VDWAALS    =      1008.4549
 EELEC  =     -7744.2524  EHBOND  =         0.0000  RESTRAINT  =         0.0000
 EKCMT  =       626.3657  VIRIAL  =       625.8177  VOLUME     =     21415.1917
                                                    Density    =         0.9846
 DV/DL  =        -3.8707
 Ewald error estimate:   0.2085E-03
 ------------------------------------------------------------------------------

      R M S  F L U C T U A T I O N S

 NSTEP =   500000   TIME(PS) =    1500.000  TEMP(K) =     6.36  PRESS =   386.5
 Etot   =        46.2692  EKtot   =        26.7833  EPtot      =        37.8126
 BOND   =         0.9940  ANGLE   =         1.0841  DIHED      =         0.3056
 1-4 NB =         0.0000  1-4 EEL =         0.0000  VDWAALS    =        38.0699
 EELEC  =        60.3217  EHBOND  =         0.0000  RESTRAINT  =         0.0000
 EKCMT  =        19.1706  VIRIAL  =       178.5226  VOLUME     =        84.3518
                                                    Density    =         0.0039
 DV/DL  =         2.1387
 Ewald error estimate:   0.1563E-03
 ------------------------------------------------------------------------------

      DV/DL, AVERAGES OVER  500000 STEPS

 NSTEP =   500000   TIME(PS) =    1500.000  TEMP(K) =     6.36  PRESS =     0.0
 Etot   =         0.0000  EKtot   =         0.0000  EPtot      =        -3.8707
 BOND   =         0.0000  ANGLE   =         0.0000  DIHED      =         0.0000
 1-4 NB =         0.0000  1-4 EEL =        -3.8299  VDWAALS    =         0.0000
 EELEC  =        -0.0407  EHBOND  =         0.0000  RESTRAINT  =         0.0000
 EKCMT  =         0.0000  VIRIAL  =         0.0000  VOLUME     =         0.0000
                                                    Density    =         0.0000
 DV/DL  =        -3.8707
 Ewald error estimate:   0.0000E+00
 ------------------------------------------------------------------------------
