-------------------------------------------------------
          Amber 14 SANDER                              2014
          -------------------------------------------------------

  [-O]verwriting output

File Assignments:

 Here is the input file:

MD simulation
 &cntrl
   imin = 0, nstlim = 500000, irest = 1, ntx = 5, dt = 0.001,
   ntt = 3, temp0 = 298.0, gamma_ln = 2.0, ig = -1,
   ntp = 1, pres0 = 1.01325, taup = 2.0,
   ntb = 2,
   ioutfm = 1, iwrap = 1,
   ntwe = 10000, ntwx = 10000, ntpr = 10000, ntwr = 50000, ntave = 50000,

   ntc = 2, ntf = 1,
   noshakemask = ':1,2',

   icfe = 1, ifsc = 0, clambda = 1.0, scalpha = 0.5, scbeta = 12.0,
   logdvdl = 1,
   ifmbar = 1, bar_intervall = 1000, bar_l_min = 0.0, bar_l_max = 1.0,
   bar_l_incr = 0.1,
   timask1 = ':1', timask2 = ':2'
 /
 &ewald
 /

Note: ig = -1. Setting random seed to   854591 based on wallclock time in
      microseconds and disabling the synchronization of random numbers
      between tasks to improve performance.

--------------------------------------------------------------------------------
   1.  RESOURCE   USE:
--------------------------------------------------------------------------------

 getting new box info from bottom of inpcrd
 NATOM  =    2121 NTYPES =       6 NBONH =    2117 MBONA  =       2
 NTHETH =      14 MTHETA =       0 NPHIH =       6 MPHIA  =       0
 NHPARM =       0 NPARM  =       0 NNB   =    2844 NRES   =     705
 NBONA  =       2 NTHETA =       0 NPHIA =       0 NUMBND =       5
 NUMANG =       3 NPTRA  =       1 NATYP =       6 NPHB   =       1
 IFBOX  =       1 NMXRS  =       6 IFCAP =       0 NEXTRA =       0
 NCOPY  =       0

     BOX TYPE: RECTILINEAR

--------------------------------------------------------------------------------
   2.  CONTROL  DATA  FOR  THE  RUN
--------------------------------------------------------------------------------

L0

General flags:
     imin    =       0, nmropt  =       0

Nature and format of input:
     ntx     =       5, irest   =       1, ntrx    =       1

Nature and format of output:
     ntxo    =       1, ntpr    =   10000, ntrx    =       1, ntwr    =   50000
     iwrap   =       1, ntwx    =   10000, ntwv    =       0, ntwe    =   10000
     ioutfm  =       1, ntwprt  =       0, idecomp =       0, rbornstat=      0

Potential function:
     ntf     =       1, ntb     =       2, igb     =       0, nsnb    =      25
     ipol    =       0, gbsa    =       0, iesp    =       0
     dielc   =   1.00000, cut     =   8.00000, intdiel =   1.00000

Frozen or restrained atoms:
     ibelly  =       0, ntr     =       0

Molecular dynamics:
     nstlim  =    500000, nscm    =      1000, nrespa  =         1
     t       =   0.00000, dt      =   0.00100, vlimit  =  20.00000

Langevin dynamics temperature regulation:
     ig      =  854591
     temp0   = 298.00000, tempi   =   0.00000, gamma_ln=   2.00000

Pressure regulation:
     ntp     =       1
     pres0   =   1.01325, comp    =  44.60000, taup    =   2.00000

SHAKE:
     ntc     =       2, jfastw  =       0
     tol     =   0.00001

Free energy options:
     icfe    =       1, ifsc    =       0, klambda =       1
     clambda =  1.0000, scalpha =  0.5000, scbeta  = 12.0000
     sceeorder =       2
     dynlmb =  0.0000 logdvdl =       1

FEP MBAR options:
     ifmbar  =       1,  bar_intervall =     1000
     bar_l_min =0.0000,  bar_l_max =1.0000,  bar_l_incr =0.1000

Ewald parameters:
     verbose =       0, ew_type =       0, nbflag  =       1, use_pme =       1
     vdwmeth =       1, eedmeth =       1, netfrc  =       1
     Box X =   28.099   Box Y =   27.719   Box Z =   27.339
     Alpha =   90.000   Beta  =   90.000   Gamma =   90.000
     NFFT1 =   30       NFFT2 =   30       NFFT3 =   30
     Cutoff=    8.000   Tol   =0.100E-04
     Ewald Coefficient =  0.34864
     Interpolation order =    4

     TI Mask 1 :1; matches      6 atoms
     TI Mask 2 :2; matches      6 atoms
     TI region 1:    2115 atoms
     TI region 2:    2115 atoms

    MBAR - lambda values considered:
      11 total:  0.0000 0.1000 0.2000 0.3000 0.4000 0.5000 0.6000 0.7000 0.8000 0.9000 1.0000
    Extra energies will be computed    500 times.
     Checking for mismatched coordinates.
 Noshake mask :1,2; matches      12 atoms.

--------------------------------------------------------------------------------
   3.  ATOMIC COORDINATES AND VELOCITIES
--------------------------------------------------------------------------------

L0
 begin time read from input coords =   500.000 ps

 Number of triangulated 3-point waters found:      703
   Removing shake constraints from O2    L0    1 -- H6    L0    1
   Removing shake constraints from C1    L0    1 -- H3    L0    1
   Removing shake constraints from C1    L0    1 -- H4    L0    1
   Removing shake constraints from C1    L0    1 -- H5    L0    1
   Removing shake constraints from O2    INT   2 -- H6    INT   2
   Removing shake constraints from C1    INT   2 -- H3    INT   2
   Removing shake constraints from C1    INT   2 -- H4    INT   2
   Removing shake constraints from C1    INT   2 -- H5    INT   2
 Number of shake restraints removed:        8

     Sum of charges for TI region  1 =   0.00000000
     Forcing neutrality...

     Sum of charges for TI region  2 =   0.00000000
     Forcing neutrality...

--------------------------------------------------------------------------------
   4.  RESULTS
 NSTEP =    10000   TIME(PS) =     510.000  TEMP(K) =   296.12  PRESS =   -92.1
 Etot   =     -5433.4253  EKtot   =      1247.5281  EPtot      =     -6680.9534
 BOND   =         3.6037  ANGLE   =         3.1046  DIHED      =         0.7749
 1-4 NB =         0.0000  1-4 EEL =         0.0000  VDWAALS    =       976.5031
 EELEC  =     -7664.9397  EHBOND  =         0.0000  RESTRAINT  =         0.0000
 EKCMT  =       631.1488  VIRIAL  =       673.9263  VOLUME     =     21518.7234
                                                    Density    =         0.9798
 DV/DL  =        -3.3600
 Ewald error estimate:   0.6023E-03
 ------------------------------------------------------------------------------

      A V E R A G E S   O V E R   50000 S T E P S

 NSTEP =    50000   TIME(PS) =     550.000  TEMP(K) =   297.71  PRESS =     6.5
 Etot   =     -5482.5774  EKtot   =      1254.2247  EPtot      =     -6736.8021
 BOND   =         1.4776  ANGLE   =         1.8420  DIHED      =         0.2931
 1-4 NB =         0.0000  1-4 EEL =         0.0000  VDWAALS    =      1009.4787
 EELEC  =     -7749.8934  EHBOND  =         0.0000  RESTRAINT  =         0.0000
 EKCMT  =       624.9138  VIRIAL  =       621.9023  VOLUME     =     21379.7150
                                                    Density    =         0.9862
 DV/DL  =        -3.7556
 Ewald error estimate:   0.1978E-03
 ------------------------------------------------------------------------------

      R M S  F L U C T U A T I O N S

 NSTEP =    50000   TIME(PS) =     550.000  TEMP(K) =     6.42  PRESS =   372.3
 Etot   =        49.5994  EKtot   =        27.0602  EPtot      =        40.2087
 BOND   =         0.9504  ANGLE   =         0.9984  DIHED      =         0.2959
 1-4 NB =         0.0000  1-4 EEL =         0.0000  VDWAALS    =        37.6594
 EELEC  =        63.7747  EHBOND  =         0.0000  RESTRAINT  =         0.0000
 EKCMT  =        19.1808  VIRIAL  =       172.5313  VOLUME     =        68.9546
                                                    Density    =         0.0032
 DV/DL  =         2.1244
 Ewald error estimate:   0.1491E-03
 ------------------------------------------------------------------------------

      A V E R A G E S   O V E R   50000 S T E P S

 NSTEP =    50000   TIME(PS) =     550.000  TEMP(K) =   297.71  PRESS =     6.5
 Etot   =     -5482.5774  EKtot   =      1254.2247  EPtot      =     -6736.8021
 BOND   =         1.4776  ANGLE   =         1.8420  DIHED      =         0.2931
 1-4 NB =         0.0000  1-4 EEL =         0.0000  VDWAALS    =      1009.4787
 EELEC  =     -7749.8934  EHBOND  =         0.0000  RESTRAINT  =         0.0000
 EKCMT  =       624.9138  VIRIAL  =       621.9023  VOLUME     =     21379.7150
                                                    Density    =         0.9862
 DV/DL  =        -3.7556
 Ewald error estimate:   0.1978E-03
 ------------------------------------------------------------------------------

      R M S  F L U C T U A T I O N S

 NSTEP =    50000   TIME(PS) =     550.000  TEMP(K) =     6.42  PRESS =   372.3
 Etot   =        49.5994  EKtot   =        27.0602  EPtot      =        40.2087
 BOND   =         0.9504  ANGLE   =         0.9984  DIHED      =         0.2959
 1-4 NB =         0.0000  1-4 EEL =         0.0000  VDWAALS    =        37.6594
 EELEC  =        63.7747  EHBOND  =         0.0000  RESTRAINT  =         0.0000
 EKCMT  =        19.1808  VIRIAL  =       172.5313  VOLUME     =        68.9546
                                                    Density    =         0.0032
 DV/DL  =         2.1244
 Ewald error estimate:   0.1491E-03
 ------------------------------------------------------------------------------

      DV/DL, AVERAGES OVER   50000 STEPS

 NSTEP =    50000   TIME(PS) =     550.000  TEMP(K) =     6.42  PRESS =     0.0
 Etot   =         0.0000  EKtot   =         0.0000  EPtot      =        -3.7556
 BOND   =         0.0000  ANGLE   =         0.0000  DIHED      =         0.0000
 1-4 NB =         0.0000  1-4 EEL =        -3.8299  VDWAALS    =         0.0000
 EELEC  =         0.0743  EHBOND  =         0.0000  RESTRAINT  =         0.0000
 EKCMT  =         0.0000  VIRIAL  =         0.0000  VOLUME     =         0.0000
                                                    Density    =         0.0000
 DV/DL  =        -3.7556
 Ewald error estimate:   0.0000E+00
 ------------------------------------------------------------------------------

      A V E R A G E S   O V E R   50000 S T E P S

 NSTEP =   100000   TIME(PS) =     600.000  TEMP(K) =   297.36  PRESS =     3.8
 Etot   =     -5484.5639  EKtot   =      1252.7128  EPtot      =     -6737.2767
 BOND   =         1.6000  ANGLE   =         1.8851  DIHED      =         0.2962
 1-4 NB =         0.0000  1-4 EEL =         0.0000  VDWAALS    =      1009.3284
 EELEC  =     -7750.3864  EHBOND  =         0.0000  RESTRAINT  =         0.0000
 EKCMT  =       624.4306  VIRIAL  =       622.6938  VOLUME     =     21371.2324
                                                    Density    =         0.9866
 DV/DL  =        -3.9129
 Ewald error estimate:   0.2041E-03
 ------------------------------------------------------------------------------

      R M S  F L U C T U A T I O N S

 NSTEP =   100000   TIME(PS) =     600.000  TEMP(K) =     6.31  PRESS =   374.5
 Etot   =        44.1754  EKtot   =        26.5792  EPtot      =        36.5822
 BOND   =         1.0555  ANGLE   =         1.0314  DIHED      =         0.3015
 1-4 NB =         0.0000  1-4 EEL =         0.0000  VDWAALS    =        36.3188
 EELEC  =        57.4283  EHBOND  =         0.0000  RESTRAINT  =         0.0000
 EKCMT  =        19.2643  VIRIAL  =       171.9946  VOLUME     =        70.6125
                                                    Density    =         0.0033
 DV/DL  =         2.0705
 Ewald error estimate:   0.1552E-03
 ------------------------------------------------------------------------------

      A V E R A G E S   O V E R   50000 S T E P S

 NSTEP =   100000   TIME(PS) =     600.000  TEMP(K) =   297.36  PRESS =     3.8
 Etot   =     -5484.5639  EKtot   =      1252.7128  EPtot      =     -6737.2767
 BOND   =         1.6000  ANGLE   =         1.8851  DIHED      =         0.2962
 1-4 NB =         0.0000  1-4 EEL =         0.0000  VDWAALS    =      1009.3284
 EELEC  =     -7750.3864  EHBOND  =         0.0000  RESTRAINT  =         0.0000
 EKCMT  =       624.4306  VIRIAL  =       622.6938  VOLUME     =     21371.2324
                                                    Density    =         0.9866
 DV/DL  =        -3.9129
 Ewald error estimate:   0.2041E-03
 ------------------------------------------------------------------------------

      R M S  F L U C T U A T I O N S

 NSTEP =   100000   TIME(PS) =     600.000  TEMP(K) =     6.31  PRESS =   374.5
 Etot   =        44.1754  EKtot   =        26.5792  EPtot      =        36.5822
 BOND   =         1.0555  ANGLE   =         1.0314  DIHED      =         0.3015
 1-4 NB =         0.0000  1-4 EEL =         0.0000  VDWAALS    =        36.3188
 EELEC  =        57.4283  EHBOND  =         0.0000  RESTRAINT  =         0.0000
 EKCMT  =        19.2643  VIRIAL  =       171.9946  VOLUME     =        70.6125
                                                    Density    =         0.0033
 DV/DL  =         2.0705
 Ewald error estimate:   0.1552E-03
 ------------------------------------------------------------------------------

      DV/DL, AVERAGES OVER   50000 STEPS

 NSTEP =   100000   TIME(PS) =     600.000  TEMP(K) =     6.31  PRESS =     0.0
 Etot   =         0.0000  EKtot   =         0.0000  EPtot      =        -3.9129
 BOND   =         0.0000  ANGLE   =         0.0000  DIHED      =         0.0000
 1-4 NB =         0.0000  1-4 EEL =        -3.8297  VDWAALS    =         0.0000
 EELEC  =        -0.0831  EHBOND  =         0.0000  RESTRAINT  =         0.0000
 EKCMT  =         0.0000  VIRIAL  =         0.0000  VOLUME     =         0.0000
                                                    Density    =         0.0000
 DV/DL  =        -3.9129
 Ewald error estimate:   0.0000E+00
 ------------------------------------------------------------------------------

      A V E R A G E S   O V E R   50000 S T E P S

 NSTEP =   500000   TIME(PS) =    1000.000  TEMP(K) =   298.32  PRESS =     1.7
 Etot   =     -5471.4364  EKtot   =      1256.7555  EPtot      =     -6728.1919
 BOND   =         1.7120  ANGLE   =         2.0584  DIHED      =         0.3096
 1-4 NB =         0.0000  1-4 EEL =         0.0000  VDWAALS    =      1005.3583
 EELEC  =     -7737.6302  EHBOND  =         0.0000  RESTRAINT  =         0.0000
 EKCMT  =       625.9987  VIRIAL  =       625.2182  VOLUME     =     21391.8042
                                                    Density    =         0.9857
 DV/DL  =        -3.8188
 Ewald error estimate:   0.2086E-03
 ------------------------------------------------------------------------------

      R M S  F L U C T U A T I O N S

 NSTEP =   500000   TIME(PS) =    1000.000  TEMP(K) =     6.26  PRESS =   375.3
 Etot   =        45.5369  EKtot   =        26.3605  EPtot      =        38.2497
 BOND   =         1.1290  ANGLE   =         1.1710  DIHED      =         0.3072
 1-4 NB =         0.0000  1-4 EEL =         0.0000  VDWAALS    =        37.6451
 EELEC  =        60.4906  EHBOND  =         0.0000  RESTRAINT  =         0.0000
 EKCMT  =        18.7017  VIRIAL  =       173.9937  VOLUME     =        77.8627
                                                    Density    =         0.0036
 DV/DL  =         2.1480
 Ewald error estimate:   0.1560E-03
 ------------------------------------------------------------------------------

      A V E R A G E S   O V E R   50000 S T E P S

 NSTEP =   500000   TIME(PS) =    1000.000  TEMP(K) =   298.32  PRESS =     1.7
 Etot   =     -5471.4364  EKtot   =      1256.7555  EPtot      =     -6728.1919
 BOND   =         1.7120  ANGLE   =         2.0584  DIHED      =         0.3096
 1-4 NB =         0.0000  1-4 EEL =         0.0000  VDWAALS    =      1005.3583
 EELEC  =     -7737.6302  EHBOND  =         0.0000  RESTRAINT  =         0.0000
 EKCMT  =       625.9987  VIRIAL  =       625.2182  VOLUME     =     21391.8042
                                                    Density    =         0.9857
 DV/DL  =        -3.8188
 Ewald error estimate:   0.2086E-03
 ------------------------------------------------------------------------------

      R M S  F L U C T U A T I O N S

 NSTEP =   500000   TIME(PS) =    1000.000  TEMP(K) =     6.26  PRESS =   375.3
 Etot   =        45.5369  EKtot   =        26.3605  EPtot      =        38.2497
 BOND   =         1.1290  ANGLE   =         1.1710  DIHED      =         0.3072
 1-4 NB =         0.0000  1-4 EEL =         0.0000  VDWAALS    =        37.6451
 EELEC  =        60.4906  EHBOND  =         0.0000  RESTRAINT  =         0.0000
 EKCMT  =        18.7017  VIRIAL  =       173.9937  VOLUME     =        77.8627
                                                    Density    =         0.0036
 DV/DL  =         2.1480
 Ewald error estimate:   0.1560E-03
 ------------------------------------------------------------------------------

      DV/DL, AVERAGES OVER   50000 STEPS

 NSTEP =   500000   TIME(PS) =    1000.000  TEMP(K) =     6.26  PRESS =     0.0
 Etot   =         0.0000  EKtot   =         0.0000  EPtot      =        -3.8188
 BOND   =         0.0000  ANGLE   =         0.0000  DIHED      =         0.0000
 1-4 NB =         0.0000  1-4 EEL =        -3.8311  VDWAALS    =         0.0000
 EELEC  =         0.0123  EHBOND  =         0.0000  RESTRAINT  =         0.0000
 EKCMT  =         0.0000  VIRIAL  =         0.0000  VOLUME     =         0.0000
                                                    Density    =         0.0000
 DV/DL  =        -3.8188
 Ewald error estimate:   0.0000E+00
 ------------------------------------------------------------------------------

      A V E R A G E S   O V E R  500000 S T E P S

 NSTEP =   500000   TIME(PS) =    1000.000  TEMP(K) =   297.63  PRESS =     1.4
 Etot   =     -5482.7830  EKtot   =      1253.8847  EPtot      =     -6736.6677
 BOND   =         1.5911  ANGLE   =         1.8891  DIHED      =         0.3092
 1-4 NB =         0.0000  1-4 EEL =         0.0000  VDWAALS    =      1009.5671
 EELEC  =     -7750.0243  EHBOND  =         0.0000  RESTRAINT  =         0.0000
 EKCMT  =       625.4682  VIRIAL  =       624.8139  VOLUME     =     21395.0834
                                                    Density    =         0.9855
 DV/DL  =        -3.8359
 Ewald error estimate:   0.2035E-03
 ------------------------------------------------------------------------------

      R M S  F L U C T U A T I O N S

 NSTEP =   500000   TIME(PS) =    1000.000  TEMP(K) =     6.41  PRESS =   386.3
 Etot   =        47.3094  EKtot   =        27.0234  EPtot      =        38.6334
 BOND   =         1.0100  ANGLE   =         1.0890  DIHED      =         0.3080
 1-4 NB =         0.0000  1-4 EEL =         0.0000  VDWAALS    =        38.2823
 EELEC  =        61.4940  EHBOND  =         0.0000  RESTRAINT  =         0.0000
 EKCMT  =        19.0848  VIRIAL  =       178.3443  VOLUME     =        85.9593
                                                    Density    =         0.0040
 DV/DL  =         2.0881
 Ewald error estimate:   0.1535E-03
 ------------------------------------------------------------------------------

      A V E R A G E S   O V E R  500000 S T E P S

 NSTEP =   500000   TIME(PS) =    1000.000  TEMP(K) =   297.63  PRESS =     1.4
 Etot   =     -5482.7830  EKtot   =      1253.8847  EPtot      =     -6736.6677
 BOND   =         1.5911  ANGLE   =         1.8891  DIHED      =         0.3092
 1-4 NB =         0.0000  1-4 EEL =         0.0000  VDWAALS    =      1009.5671
 EELEC  =     -7750.0243  EHBOND  =         0.0000  RESTRAINT  =         0.0000
 EKCMT  =       625.4682  VIRIAL  =       624.8139  VOLUME     =     21395.0834
                                                    Density    =         0.9855
 DV/DL  =        -3.8359
 Ewald error estimate:   0.2035E-03
 ------------------------------------------------------------------------------

      R M S  F L U C T U A T I O N S

 NSTEP =   500000   TIME(PS) =    1000.000  TEMP(K) =     6.41  PRESS =   386.3
 Etot   =        47.3094  EKtot   =        27.0234  EPtot      =        38.6334
 BOND   =         1.0100  ANGLE   =         1.0890  DIHED      =         0.3080
 1-4 NB =         0.0000  1-4 EEL =         0.0000  VDWAALS    =        38.2823
 EELEC  =        61.4940  EHBOND  =         0.0000  RESTRAINT  =         0.0000
 EKCMT  =        19.0848  VIRIAL  =       178.3443  VOLUME     =        85.9593
                                                    Density    =         0.0040
 DV/DL  =         2.0881
 Ewald error estimate:   0.1535E-03
 ------------------------------------------------------------------------------

      DV/DL, AVERAGES OVER  500000 STEPS

 NSTEP =   500000   TIME(PS) =    1000.000  TEMP(K) =     6.41  PRESS =     0.0
 Etot   =         0.0000  EKtot   =         0.0000  EPtot      =        -3.8359
 BOND   =         0.0000  ANGLE   =         0.0000  DIHED      =         0.0000
 1-4 NB =         0.0000  1-4 EEL =        -3.8303  VDWAALS    =         0.0000
 EELEC  =        -0.0056  EHBOND  =         0.0000  RESTRAINT  =         0.0000
 EKCMT  =         0.0000  VIRIAL  =         0.0000  VOLUME     =         0.0000
                                                    Density    =         0.0000
 DV/DL  =        -3.8359
 Ewald error estimate:   0.0000E+00
 ------------------------------------------------------------------------------
