-------------------------------------------------------
          Amber 14 SANDER                              2014
          -------------------------------------------------------

  [-O]verwriting output

File Assignments:

 Here is the input file:

MD simulation
 &cntrl
   imin = 0, nstlim = 500000, irest = 1, ntx = 5, dt = 0.001,
   ntt = 3, temp0 = 298.0, gamma_ln = 2.0, ig = -1,
   ntp = 1, pres0 = 1.01325, taup = 2.0,
   ntb = 2,
   ioutfm = 1, iwrap = 1,
   ntwe = 10000, ntwx = 10000, ntpr = 10000, ntwr = 50000, ntave = 50000,

   ntc = 2, ntf = 1,
   noshakemask = ':1,2',

   icfe = 1, ifsc = 0, clambda = 0.7, scalpha = 0.5, scbeta = 12.0,
   logdvdl = 1,
   ifmbar = 1, bar_intervall = 1000, bar_l_min = 0.0, bar_l_max = 1.0,
   bar_l_incr = 0.1,
   timask1 = ':1', timask2 = ':2'
 /
 &ewald
 /

Note: ig = -1. Setting random seed to   116994 based on wallclock time in
      microseconds and disabling the synchronization of random numbers
      between tasks to improve performance.

--------------------------------------------------------------------------------
   1.  RESOURCE   USE:
--------------------------------------------------------------------------------

 getting new box info from bottom of inpcrd
 NATOM  =    2121 NTYPES =       6 NBONH =    2117 MBONA  =       2
 NTHETH =      14 MTHETA =       0 NPHIH =       6 MPHIA  =       0
 NHPARM =       0 NPARM  =       0 NNB   =    2844 NRES   =     705
 NBONA  =       2 NTHETA =       0 NPHIA =       0 NUMBND =       5
 NUMANG =       3 NPTRA  =       1 NATYP =       6 NPHB   =       1
 IFBOX  =       1 NMXRS  =       6 IFCAP =       0 NEXTRA =       0
 NCOPY  =       0

     BOX TYPE: RECTILINEAR

--------------------------------------------------------------------------------
   2.  CONTROL  DATA  FOR  THE  RUN
--------------------------------------------------------------------------------

L0

General flags:
     imin    =       0, nmropt  =       0

Nature and format of input:
     ntx     =       5, irest   =       1, ntrx    =       1

Nature and format of output:
     ntxo    =       1, ntpr    =   10000, ntrx    =       1, ntwr    =   50000
     iwrap   =       1, ntwx    =   10000, ntwv    =       0, ntwe    =   10000
     ioutfm  =       1, ntwprt  =       0, idecomp =       0, rbornstat=      0

Potential function:
     ntf     =       1, ntb     =       2, igb     =       0, nsnb    =      25
     ipol    =       0, gbsa    =       0, iesp    =       0
     dielc   =   1.00000, cut     =   8.00000, intdiel =   1.00000

Frozen or restrained atoms:
     ibelly  =       0, ntr     =       0

Molecular dynamics:
     nstlim  =    500000, nscm    =      1000, nrespa  =         1
     t       =   0.00000, dt      =   0.00100, vlimit  =  20.00000

Langevin dynamics temperature regulation:
     ig      =  116994
     temp0   = 298.00000, tempi   =   0.00000, gamma_ln=   2.00000

Pressure regulation:
     ntp     =       1
     pres0   =   1.01325, comp    =  44.60000, taup    =   2.00000

SHAKE:
     ntc     =       2, jfastw  =       0
     tol     =   0.00001

Free energy options:
     icfe    =       1, ifsc    =       0, klambda =       1
     clambda =  0.7000, scalpha =  0.5000, scbeta  = 12.0000
     sceeorder =       2
     dynlmb =  0.0000 logdvdl =       1

FEP MBAR options:
     ifmbar  =       1,  bar_intervall =     1000
     bar_l_min =0.0000,  bar_l_max =1.0000,  bar_l_incr =0.1000

Ewald parameters:
     verbose =       0, ew_type =       0, nbflag  =       1, use_pme =       1
     vdwmeth =       1, eedmeth =       1, netfrc  =       1
     Box X =   28.123   Box Y =   27.743   Box Z =   27.363
     Alpha =   90.000   Beta  =   90.000   Gamma =   90.000
     NFFT1 =   30       NFFT2 =   30       NFFT3 =   30
     Cutoff=    8.000   Tol   =0.100E-04
     Ewald Coefficient =  0.34864
     Interpolation order =    4

     TI Mask 1 :1; matches      6 atoms
     TI Mask 2 :2; matches      6 atoms
     TI region 1:    2115 atoms
     TI region 2:    2115 atoms

    MBAR - lambda values considered:
      11 total:  0.0000 0.1000 0.2000 0.3000 0.4000 0.5000 0.6000 0.7000 0.8000 0.9000 1.0000
    Extra energies will be computed    500 times.
     Checking for mismatched coordinates.
 Noshake mask :1,2; matches      12 atoms.

--------------------------------------------------------------------------------
   3.  ATOMIC COORDINATES AND VELOCITIES
--------------------------------------------------------------------------------

L0
 begin time read from input coords =   500.000 ps

 Number of triangulated 3-point waters found:      703
   Removing shake constraints from O2    L0    1 -- H6    L0    1
   Removing shake constraints from C1    L0    1 -- H3    L0    1
   Removing shake constraints from C1    L0    1 -- H4    L0    1
   Removing shake constraints from C1    L0    1 -- H5    L0    1
   Removing shake constraints from O2    INT   2 -- H6    INT   2
   Removing shake constraints from C1    INT   2 -- H3    INT   2
   Removing shake constraints from C1    INT   2 -- H4    INT   2
   Removing shake constraints from C1    INT   2 -- H5    INT   2
 Number of shake restraints removed:        8

     Sum of charges for TI region  1 =   0.00000000
     Forcing neutrality...

     Sum of charges for TI region  2 =   0.00000000
     Forcing neutrality...

--------------------------------------------------------------------------------
   4.  RESULTS
 NSTEP =    10000   TIME(PS) =     510.000  TEMP(K) =   298.64  PRESS =   427.1
 Etot   =     -5527.4218  EKtot   =      1258.1052  EPtot      =     -6785.5270
 BOND   =         1.3666  ANGLE   =         2.8176  DIHED      =         0.0315
 1-4 NB =         0.0000  1-4 EEL =         1.1035  VDWAALS    =      1063.9889
 EELEC  =     -7854.8351  EHBOND  =         0.0000  RESTRAINT  =         0.0000
 EKCMT  =       645.5185  VIRIAL  =       447.8354  VOLUME     =     21438.6513
                                                    Density    =         0.9835
 DV/DL  =        -0.1233
 Ewald error estimate:   0.2903E-03
 ------------------------------------------------------------------------------

      A V E R A G E S   O V E R   50000 S T E P S

 NSTEP =    50000   TIME(PS) =     550.000  TEMP(K) =   297.53  PRESS =     7.0
 Etot   =     -5491.8108  EKtot   =      1253.4557  EPtot      =     -6745.2665
 BOND   =         1.5390  ANGLE   =         1.8290  DIHED      =         0.3094
 1-4 NB =         0.0000  1-4 EEL =         1.1476  VDWAALS    =      1013.5507
 EELEC  =     -7763.6422  EHBOND  =         0.0000  RESTRAINT  =         0.0000
 EKCMT  =       626.5295  VIRIAL  =       623.2809  VOLUME     =     21387.6535
                                                    Density    =         0.9859
 DV/DL  =        -1.6246
 Ewald error estimate:   0.2061E-03
 ------------------------------------------------------------------------------

      R M S  F L U C T U A T I O N S

 NSTEP =    50000   TIME(PS) =     550.000  TEMP(K) =     6.40  PRESS =   362.7
 Etot   =        46.3985  EKtot   =        26.9579  EPtot      =        37.3318
 BOND   =         0.9715  ANGLE   =         1.0518  DIHED      =         0.3019
 1-4 NB =         0.0000  1-4 EEL =         0.0352  VDWAALS    =        37.5271
 EELEC  =        60.7702  EHBOND  =         0.0000  RESTRAINT  =         0.0000
 EKCMT  =        19.5201  VIRIAL  =       168.6404  VOLUME     =        88.1667
                                                    Density    =         0.0041
 DV/DL  =         2.2625
 Ewald error estimate:   0.1577E-03
 ------------------------------------------------------------------------------

      A V E R A G E S   O V E R   50000 S T E P S

 NSTEP =    50000   TIME(PS) =     550.000  TEMP(K) =   297.53  PRESS =     7.0
 Etot   =     -5491.8108  EKtot   =      1253.4557  EPtot      =     -6745.2665
 BOND   =         1.5390  ANGLE   =         1.8290  DIHED      =         0.3094
 1-4 NB =         0.0000  1-4 EEL =         1.1476  VDWAALS    =      1013.5507
 EELEC  =     -7763.6422  EHBOND  =         0.0000  RESTRAINT  =         0.0000
 EKCMT  =       626.5295  VIRIAL  =       623.2809  VOLUME     =     21387.6535
                                                    Density    =         0.9859
 DV/DL  =        -1.6246
 Ewald error estimate:   0.2061E-03
 ------------------------------------------------------------------------------

      R M S  F L U C T U A T I O N S

 NSTEP =    50000   TIME(PS) =     550.000  TEMP(K) =     6.40  PRESS =   362.7
 Etot   =        46.3985  EKtot   =        26.9579  EPtot      =        37.3318
 BOND   =         0.9715  ANGLE   =         1.0518  DIHED      =         0.3019
 1-4 NB =         0.0000  1-4 EEL =         0.0352  VDWAALS    =        37.5271
 EELEC  =        60.7702  EHBOND  =         0.0000  RESTRAINT  =         0.0000
 EKCMT  =        19.5201  VIRIAL  =       168.6404  VOLUME     =        88.1667
                                                    Density    =         0.0041
 DV/DL  =         2.2625
 Ewald error estimate:   0.1577E-03
 ------------------------------------------------------------------------------

      DV/DL, AVERAGES OVER   50000 STEPS

 NSTEP =    50000   TIME(PS) =     550.000  TEMP(K) =     6.40  PRESS =     0.0
 Etot   =         0.0000  EKtot   =         0.0000  EPtot      =        -1.6246
 BOND   =         0.0000  ANGLE   =         0.0000  DIHED      =         0.0000
 1-4 NB =         0.0000  1-4 EEL =        -3.8255  VDWAALS    =         0.0000
 EELEC  =         2.2008  EHBOND  =         0.0000  RESTRAINT  =         0.0000
 EKCMT  =         0.0000  VIRIAL  =         0.0000  VOLUME     =         0.0000
                                                    Density    =         0.0000
 DV/DL  =        -1.6246
 Ewald error estimate:   0.0000E+00
 ------------------------------------------------------------------------------

      A V E R A G E S   O V E R   50000 S T E P S

 NSTEP =   100000   TIME(PS) =     600.000  TEMP(K) =   297.36  PRESS =     1.4
 Etot   =     -5487.9259  EKtot   =      1252.7178  EPtot      =     -6740.6437
 BOND   =         1.6398  ANGLE   =         1.8521  DIHED      =         0.3332
 1-4 NB =         0.0000  1-4 EEL =         1.1473  VDWAALS    =      1011.6532
 EELEC  =     -7757.2694  EHBOND  =         0.0000  RESTRAINT  =         0.0000
 EKCMT  =       625.2934  VIRIAL  =       624.6620  VOLUME     =     21396.8258
                                                    Density    =         0.9854
 DV/DL  =        -1.7183
 Ewald error estimate:   0.1997E-03
 ------------------------------------------------------------------------------

      R M S  F L U C T U A T I O N S

 NSTEP =   100000   TIME(PS) =     600.000  TEMP(K) =     6.18  PRESS =   392.5
 Etot   =        41.9890  EKtot   =        26.0263  EPtot      =        35.3172
 BOND   =         1.0064  ANGLE   =         1.0500  DIHED      =         0.3176
 1-4 NB =         0.0000  1-4 EEL =         0.0358  VDWAALS    =        37.6011
 EELEC  =        56.2556  EHBOND  =         0.0000  RESTRAINT  =         0.0000
 EKCMT  =        18.8149  VIRIAL  =       181.1299  VOLUME     =        90.1064
                                                    Density    =         0.0042
 DV/DL  =         2.2984
 Ewald error estimate:   0.1492E-03
 ------------------------------------------------------------------------------

      A V E R A G E S   O V E R   50000 S T E P S

 NSTEP =   100000   TIME(PS) =     600.000  TEMP(K) =   297.36  PRESS =     1.4
 Etot   =     -5487.9259  EKtot   =      1252.7178  EPtot      =     -6740.6437
 BOND   =         1.6398  ANGLE   =         1.8521  DIHED      =         0.3332
 1-4 NB =         0.0000  1-4 EEL =         1.1473  VDWAALS    =      1011.6532
 EELEC  =     -7757.2694  EHBOND  =         0.0000  RESTRAINT  =         0.0000
 EKCMT  =       625.2934  VIRIAL  =       624.6620  VOLUME     =     21396.8258
                                                    Density    =         0.9854
 DV/DL  =        -1.7183
 Ewald error estimate:   0.1997E-03
 ------------------------------------------------------------------------------

      R M S  F L U C T U A T I O N S

 NSTEP =   100000   TIME(PS) =     600.000  TEMP(K) =     6.18  PRESS =   392.5
 Etot   =        41.9890  EKtot   =        26.0263  EPtot      =        35.3172
 BOND   =         1.0064  ANGLE   =         1.0500  DIHED      =         0.3176
 1-4 NB =         0.0000  1-4 EEL =         0.0358  VDWAALS    =        37.6011
 EELEC  =        56.2556  EHBOND  =         0.0000  RESTRAINT  =         0.0000
 EKCMT  =        18.8149  VIRIAL  =       181.1299  VOLUME     =        90.1064
                                                    Density    =         0.0042
 DV/DL  =         2.2984
 Ewald error estimate:   0.1492E-03
 ------------------------------------------------------------------------------

      DV/DL, AVERAGES OVER   50000 STEPS

 NSTEP =   100000   TIME(PS) =     600.000  TEMP(K) =     6.18  PRESS =     0.0
 Etot   =         0.0000  EKtot   =         0.0000  EPtot      =        -1.7183
 BOND   =         0.0000  ANGLE   =         0.0000  DIHED      =         0.0000
 1-4 NB =         0.0000  1-4 EEL =        -3.8244  VDWAALS    =         0.0000
 EELEC  =         2.1061  EHBOND  =         0.0000  RESTRAINT  =         0.0000
 EKCMT  =         0.0000  VIRIAL  =         0.0000  VOLUME     =         0.0000
                                                    Density    =         0.0000
 DV/DL  =        -1.7183
 Ewald error estimate:   0.0000E+00
 ------------------------------------------------------------------------------

      A V E R A G E S   O V E R   50000 S T E P S

 NSTEP =   500000   TIME(PS) =    1000.000  TEMP(K) =   297.54  PRESS =     4.8
 Etot   =     -5486.5070  EKtot   =      1253.4966  EPtot      =     -6740.0037
 BOND   =         1.7269  ANGLE   =         1.8135  DIHED      =         0.3320
 1-4 NB =         0.0000  1-4 EEL =         1.1474  VDWAALS    =      1010.5666
 EELEC  =     -7755.5900  EHBOND  =         0.0000  RESTRAINT  =         0.0000
 EKCMT  =       625.5104  VIRIAL  =       623.2968  VOLUME     =     21372.1656
                                                    Density    =         0.9866
 DV/DL  =        -1.6619
 Ewald error estimate:   0.2110E-03
 ------------------------------------------------------------------------------

      R M S  F L U C T U A T I O N S

 NSTEP =   500000   TIME(PS) =    1000.000  TEMP(K) =     6.20  PRESS =   381.5
 Etot   =        43.7105  EKtot   =        26.1177  EPtot      =        36.2225
 BOND   =         1.0571  ANGLE   =         0.9458  DIHED      =         0.3120
 1-4 NB =         0.0000  1-4 EEL =         0.0344  VDWAALS    =        37.8190
 EELEC  =        58.2677  EHBOND  =         0.0000  RESTRAINT  =         0.0000
 EKCMT  =        18.1269  VIRIAL  =       176.7023  VOLUME     =       106.2019
                                                    Density    =         0.0049
 DV/DL  =         2.2929
 Ewald error estimate:   0.1606E-03
 ------------------------------------------------------------------------------

      A V E R A G E S   O V E R   50000 S T E P S

 NSTEP =   500000   TIME(PS) =    1000.000  TEMP(K) =   297.54  PRESS =     4.8
 Etot   =     -5486.5070  EKtot   =      1253.4966  EPtot      =     -6740.0037
 BOND   =         1.7269  ANGLE   =         1.8135  DIHED      =         0.3320
 1-4 NB =         0.0000  1-4 EEL =         1.1474  VDWAALS    =      1010.5666
 EELEC  =     -7755.5900  EHBOND  =         0.0000  RESTRAINT  =         0.0000
 EKCMT  =       625.5104  VIRIAL  =       623.2968  VOLUME     =     21372.1656
                                                    Density    =         0.9866
 DV/DL  =        -1.6619
 Ewald error estimate:   0.2110E-03
 ------------------------------------------------------------------------------

      R M S  F L U C T U A T I O N S

 NSTEP =   500000   TIME(PS) =    1000.000  TEMP(K) =     6.20  PRESS =   381.5
 Etot   =        43.7105  EKtot   =        26.1177  EPtot      =        36.2225
 BOND   =         1.0571  ANGLE   =         0.9458  DIHED      =         0.3120
 1-4 NB =         0.0000  1-4 EEL =         0.0344  VDWAALS    =        37.8190
 EELEC  =        58.2677  EHBOND  =         0.0000  RESTRAINT  =         0.0000
 EKCMT  =        18.1269  VIRIAL  =       176.7023  VOLUME     =       106.2019
                                                    Density    =         0.0049
 DV/DL  =         2.2929
 Ewald error estimate:   0.1606E-03
 ------------------------------------------------------------------------------

      DV/DL, AVERAGES OVER   50000 STEPS

 NSTEP =   500000   TIME(PS) =    1000.000  TEMP(K) =     6.20  PRESS =     0.0
 Etot   =         0.0000  EKtot   =         0.0000  EPtot      =        -1.6619
 BOND   =         0.0000  ANGLE   =         0.0000  DIHED      =         0.0000
 1-4 NB =         0.0000  1-4 EEL =        -3.8248  VDWAALS    =         0.0000
 EELEC  =         2.1629  EHBOND  =         0.0000  RESTRAINT  =         0.0000
 EKCMT  =         0.0000  VIRIAL  =         0.0000  VOLUME     =         0.0000
                                                    Density    =         0.0000
 DV/DL  =        -1.6619
 Ewald error estimate:   0.0000E+00
 ------------------------------------------------------------------------------

      A V E R A G E S   O V E R  500000 S T E P S

 NSTEP =   500000   TIME(PS) =    1000.000  TEMP(K) =   297.71  PRESS =     1.6
 Etot   =     -5480.8288  EKtot   =      1254.2269  EPtot      =     -6735.0557
 BOND   =         1.5636  ANGLE   =         1.8083  DIHED      =         0.3139
 1-4 NB =         0.0000  1-4 EEL =         1.1473  VDWAALS    =      1009.9377
 EELEC  =     -7749.8265  EHBOND  =         0.0000  RESTRAINT  =         0.0000
 EKCMT  =       625.8751  VIRIAL  =       625.1163  VOLUME     =     21404.5879
                                                    Density    =         0.9851
 DV/DL  =        -1.6337
 Ewald error estimate:   0.2059E-03
 ------------------------------------------------------------------------------

      R M S  F L U C T U A T I O N S

 NSTEP =   500000   TIME(PS) =    1000.000  TEMP(K) =     6.41  PRESS =   385.8
 Etot   =        47.9067  EKtot   =        27.0072  EPtot      =        39.0126
 BOND   =         0.9834  ANGLE   =         1.0362  DIHED      =         0.3089
 1-4 NB =         0.0000  1-4 EEL =         0.0344  VDWAALS    =        38.2099
 EELEC  =        61.5736  EHBOND  =         0.0000  RESTRAINT  =         0.0000
 EKCMT  =        18.8588  VIRIAL  =       178.4559  VOLUME     =        92.4527
                                                    Density    =         0.0043
 DV/DL  =         2.2655
 Ewald error estimate:   0.1561E-03
 ------------------------------------------------------------------------------

      A V E R A G E S   O V E R  500000 S T E P S

 NSTEP =   500000   TIME(PS) =    1000.000  TEMP(K) =   297.71  PRESS =     1.6
 Etot   =     -5480.8288  EKtot   =      1254.2269  EPtot      =     -6735.0557
 BOND   =         1.5636  ANGLE   =         1.8083  DIHED      =         0.3139
 1-4 NB =         0.0000  1-4 EEL =         1.1473  VDWAALS    =      1009.9377
 EELEC  =     -7749.8265  EHBOND  =         0.0000  RESTRAINT  =         0.0000
 EKCMT  =       625.8751  VIRIAL  =       625.1163  VOLUME     =     21404.5879
                                                    Density    =         0.9851
 DV/DL  =        -1.6337
 Ewald error estimate:   0.2059E-03
 ------------------------------------------------------------------------------

      R M S  F L U C T U A T I O N S

 NSTEP =   500000   TIME(PS) =    1000.000  TEMP(K) =     6.41  PRESS =   385.8
 Etot   =        47.9067  EKtot   =        27.0072  EPtot      =        39.0126
 BOND   =         0.9834  ANGLE   =         1.0362  DIHED      =         0.3089
 1-4 NB =         0.0000  1-4 EEL =         0.0344  VDWAALS    =        38.2099
 EELEC  =        61.5736  EHBOND  =         0.0000  RESTRAINT  =         0.0000
 EKCMT  =        18.8588  VIRIAL  =       178.4559  VOLUME     =        92.4527
                                                    Density    =         0.0043
 DV/DL  =         2.2655
 Ewald error estimate:   0.1561E-03
 ------------------------------------------------------------------------------

      DV/DL, AVERAGES OVER  500000 STEPS

 NSTEP =   500000   TIME(PS) =    1000.000  TEMP(K) =     6.41  PRESS =     0.0
 Etot   =         0.0000  EKtot   =         0.0000  EPtot      =        -1.6337
 BOND   =         0.0000  ANGLE   =         0.0000  DIHED      =         0.0000
 1-4 NB =         0.0000  1-4 EEL =        -3.8243  VDWAALS    =         0.0000
 EELEC  =         2.1907  EHBOND  =         0.0000  RESTRAINT  =         0.0000
 EKCMT  =         0.0000  VIRIAL  =         0.0000  VOLUME     =         0.0000
                                                    Density    =         0.0000
 DV/DL  =        -1.6337
 Ewald error estimate:   0.0000E+00
 ------------------------------------------------------------------------------
