-------------------------------------------------------
          Amber 14 SANDER                              2014
          -------------------------------------------------------

  [-O]verwriting output

File Assignments:

 Here is the input file:

MD simulation
 &cntrl
   imin = 0, nstlim = 500000, irest = 1, ntx = 5, dt = 0.001,
   ntt = 3, temp0 = 298.0, gamma_ln = 2.0, ig = -1,
   ntp = 1, pres0 = 1.01325, taup = 2.0,
   ntb = 2,
   ioutfm = 1, iwrap = 1,
   ntwe = 10000, ntwx = 10000, ntpr = 10000, ntwr = 50000, ntave = 50000,

   ntc = 2, ntf = 1,
   noshakemask = ':1,2',

   icfe = 1, ifsc = 0, clambda = 0.7, scalpha = 0.5, scbeta = 12.0,
   logdvdl = 1,
   ifmbar = 1, bar_intervall = 1000, bar_l_min = 0.0, bar_l_max = 1.0,
   bar_l_incr = 0.1,
   timask1 = ':1', timask2 = ':2'
 /
 &ewald
 /

Note: ig = -1. Setting random seed to   892014 based on wallclock time in
      microseconds and disabling the synchronization of random numbers
      between tasks to improve performance.

--------------------------------------------------------------------------------
   1.  RESOURCE   USE:
--------------------------------------------------------------------------------

 getting new box info from bottom of inpcrd
 NATOM  =    2121 NTYPES =       6 NBONH =    2117 MBONA  =       2
 NTHETH =      14 MTHETA =       0 NPHIH =       6 MPHIA  =       0
 NHPARM =       0 NPARM  =       0 NNB   =    2844 NRES   =     705
 NBONA  =       2 NTHETA =       0 NPHIA =       0 NUMBND =       5
 NUMANG =       3 NPTRA  =       1 NATYP =       6 NPHB   =       1
 IFBOX  =       1 NMXRS  =       6 IFCAP =       0 NEXTRA =       0
 NCOPY  =       0

     BOX TYPE: RECTILINEAR

--------------------------------------------------------------------------------
   2.  CONTROL  DATA  FOR  THE  RUN
--------------------------------------------------------------------------------

L0

General flags:
     imin    =       0, nmropt  =       0

Nature and format of input:
     ntx     =       5, irest   =       1, ntrx    =       1

Nature and format of output:
     ntxo    =       1, ntpr    =   10000, ntrx    =       1, ntwr    =   50000
     iwrap   =       1, ntwx    =   10000, ntwv    =       0, ntwe    =   10000
     ioutfm  =       1, ntwprt  =       0, idecomp =       0, rbornstat=      0

Potential function:
     ntf     =       1, ntb     =       2, igb     =       0, nsnb    =      25
     ipol    =       0, gbsa    =       0, iesp    =       0
     dielc   =   1.00000, cut     =   8.00000, intdiel =   1.00000

Frozen or restrained atoms:
     ibelly  =       0, ntr     =       0

Molecular dynamics:
     nstlim  =    500000, nscm    =      1000, nrespa  =         1
     t       =   0.00000, dt      =   0.00100, vlimit  =  20.00000

Langevin dynamics temperature regulation:
     ig      =  892014
     temp0   = 298.00000, tempi   =   0.00000, gamma_ln=   2.00000

Pressure regulation:
     ntp     =       1
     pres0   =   1.01325, comp    =  44.60000, taup    =   2.00000

SHAKE:
     ntc     =       2, jfastw  =       0
     tol     =   0.00001

Free energy options:
     icfe    =       1, ifsc    =       0, klambda =       1
     clambda =  0.7000, scalpha =  0.5000, scbeta  = 12.0000
     sceeorder =       2
     dynlmb =  0.0000 logdvdl =       1

FEP MBAR options:
     ifmbar  =       1,  bar_intervall =     1000
     bar_l_min =0.0000,  bar_l_max =1.0000,  bar_l_incr =0.1000

Ewald parameters:
     verbose =       0, ew_type =       0, nbflag  =       1, use_pme =       1
     vdwmeth =       1, eedmeth =       1, netfrc  =       1
     Box X =   28.189   Box Y =   27.808   Box Z =   27.427
     Alpha =   90.000   Beta  =   90.000   Gamma =   90.000
     NFFT1 =   30       NFFT2 =   30       NFFT3 =   30
     Cutoff=    8.000   Tol   =0.100E-04
     Ewald Coefficient =  0.34864
     Interpolation order =    4

     TI Mask 1 :1; matches      6 atoms
     TI Mask 2 :2; matches      6 atoms
     TI region 1:    2115 atoms
     TI region 2:    2115 atoms

    MBAR - lambda values considered:
      11 total:  0.0000 0.1000 0.2000 0.3000 0.4000 0.5000 0.6000 0.7000 0.8000 0.9000 1.0000
    Extra energies will be computed    500 times.
     Checking for mismatched coordinates.
 Noshake mask :1,2; matches      12 atoms.

--------------------------------------------------------------------------------
   3.  ATOMIC COORDINATES AND VELOCITIES
--------------------------------------------------------------------------------

L0
 begin time read from input coords =  1000.000 ps

 Number of triangulated 3-point waters found:      703
   Removing shake constraints from O2    L0    1 -- H6    L0    1
   Removing shake constraints from C1    L0    1 -- H3    L0    1
   Removing shake constraints from C1    L0    1 -- H4    L0    1
   Removing shake constraints from C1    L0    1 -- H5    L0    1
   Removing shake constraints from O2    INT   2 -- H6    INT   2
   Removing shake constraints from C1    INT   2 -- H3    INT   2
   Removing shake constraints from C1    INT   2 -- H4    INT   2
   Removing shake constraints from C1    INT   2 -- H5    INT   2
 Number of shake restraints removed:        8

     Sum of charges for TI region  1 =   0.00000000
     Forcing neutrality...

     Sum of charges for TI region  2 =   0.00000000
     Forcing neutrality...

--------------------------------------------------------------------------------
   4.  RESULTS
 NSTEP =    10000   TIME(PS) =    1010.000  TEMP(K) =   297.35  PRESS =   384.9
 Etot   =     -5438.2612  EKtot   =      1252.6861  EPtot      =     -6690.9473
 BOND   =         3.0372  ANGLE   =         2.5729  DIHED      =         0.3217
 1-4 NB =         0.0000  1-4 EEL =         1.0860  VDWAALS    =      1028.2770
 EELEC  =     -7726.2420  EHBOND  =         0.0000  RESTRAINT  =         0.0000
 EKCMT  =       625.1780  VIRIAL  =       447.2709  VOLUME     =     21405.0979
                                                    Density    =         0.9850
 DV/DL  =        -0.5171
 Ewald error estimate:   0.1506E-03
 ------------------------------------------------------------------------------

      A V E R A G E S   O V E R   50000 S T E P S

 NSTEP =    50000   TIME(PS) =    1050.000  TEMP(K) =   297.97  PRESS =    -5.6
 Etot   =     -5472.1453  EKtot   =      1255.3182  EPtot      =     -6727.4635
 BOND   =         1.5743  ANGLE   =         1.7241  DIHED      =         0.3361
 1-4 NB =         0.0000  1-4 EEL =         1.1476  VDWAALS    =      1006.0138
 EELEC  =     -7738.2593  EHBOND  =         0.0000  RESTRAINT  =         0.0000
 EKCMT  =       626.2816  VIRIAL  =       628.8902  VOLUME     =     21409.7861
                                                    Density    =         0.9848
 DV/DL  =        -1.7387
 Ewald error estimate:   0.2066E-03
 ------------------------------------------------------------------------------

      R M S  F L U C T U A T I O N S

 NSTEP =    50000   TIME(PS) =    1050.000  TEMP(K) =     6.48  PRESS =   370.7
 Etot   =        49.0026  EKtot   =        27.3102  EPtot      =        39.2479
 BOND   =         0.9851  ANGLE   =         1.0351  DIHED      =         0.3175
 1-4 NB =         0.0000  1-4 EEL =         0.0330  VDWAALS    =        36.8041
 EELEC  =        60.8360  EHBOND  =         0.0000  RESTRAINT  =         0.0000
 EKCMT  =        18.9555  VIRIAL  =       172.0812  VOLUME     =        77.0750
                                                    Density    =         0.0036
 DV/DL  =         2.1726
 Ewald error estimate:   0.1550E-03
 ------------------------------------------------------------------------------

      A V E R A G E S   O V E R   50000 S T E P S

 NSTEP =    50000   TIME(PS) =    1050.000  TEMP(K) =   297.97  PRESS =    -5.6
 Etot   =     -5472.1453  EKtot   =      1255.3182  EPtot      =     -6727.4635
 BOND   =         1.5743  ANGLE   =         1.7241  DIHED      =         0.3361
 1-4 NB =         0.0000  1-4 EEL =         1.1476  VDWAALS    =      1006.0138
 EELEC  =     -7738.2593  EHBOND  =         0.0000  RESTRAINT  =         0.0000
 EKCMT  =       626.2816  VIRIAL  =       628.8902  VOLUME     =     21409.7861
                                                    Density    =         0.9848
 DV/DL  =        -1.7387
 Ewald error estimate:   0.2066E-03
 ------------------------------------------------------------------------------

      R M S  F L U C T U A T I O N S

 NSTEP =    50000   TIME(PS) =    1050.000  TEMP(K) =     6.48  PRESS =   370.7
 Etot   =        49.0026  EKtot   =        27.3102  EPtot      =        39.2479
 BOND   =         0.9851  ANGLE   =         1.0351  DIHED      =         0.3175
 1-4 NB =         0.0000  1-4 EEL =         0.0330  VDWAALS    =        36.8041
 EELEC  =        60.8360  EHBOND  =         0.0000  RESTRAINT  =         0.0000
 EKCMT  =        18.9555  VIRIAL  =       172.0812  VOLUME     =        77.0750
                                                    Density    =         0.0036
 DV/DL  =         2.1726
 Ewald error estimate:   0.1550E-03
 ------------------------------------------------------------------------------

      DV/DL, AVERAGES OVER   50000 STEPS

 NSTEP =    50000   TIME(PS) =    1050.000  TEMP(K) =     6.48  PRESS =     0.0
 Etot   =         0.0000  EKtot   =         0.0000  EPtot      =        -1.7387
 BOND   =         0.0000  ANGLE   =         0.0000  DIHED      =         0.0000
 1-4 NB =         0.0000  1-4 EEL =        -3.8253  VDWAALS    =         0.0000
 EELEC  =         2.0866  EHBOND  =         0.0000  RESTRAINT  =         0.0000
 EKCMT  =         0.0000  VIRIAL  =         0.0000  VOLUME     =         0.0000
                                                    Density    =         0.0000
 DV/DL  =        -1.7387
 Ewald error estimate:   0.0000E+00
 ------------------------------------------------------------------------------

      A V E R A G E S   O V E R   50000 S T E P S

 NSTEP =   100000   TIME(PS) =    1100.000  TEMP(K) =   298.14  PRESS =     3.0
 Etot   =     -5479.2966  EKtot   =      1256.0207  EPtot      =     -6735.3173
 BOND   =         1.5913  ANGLE   =         1.9558  DIHED      =         0.3235
 1-4 NB =         0.0000  1-4 EEL =         1.1477  VDWAALS    =      1007.8198
 EELEC  =     -7748.1553  EHBOND  =         0.0000  RESTRAINT  =         0.0000
 EKCMT  =       628.2637  VIRIAL  =       626.8822  VOLUME     =     21375.2204
                                                    Density    =         0.9864
 DV/DL  =        -1.6061
 Ewald error estimate:   0.2078E-03
 ------------------------------------------------------------------------------

      R M S  F L U C T U A T I O N S

 NSTEP =   100000   TIME(PS) =    1100.000  TEMP(K) =     6.57  PRESS =   379.7
 Etot   =        51.0672  EKtot   =        27.6597  EPtot      =        41.4322
 BOND   =         1.0284  ANGLE   =         1.1436  DIHED      =         0.3186
 1-4 NB =         0.0000  1-4 EEL =         0.0343  VDWAALS    =        36.4511
 EELEC  =        61.5020  EHBOND  =         0.0000  RESTRAINT  =         0.0000
 EKCMT  =        19.7953  VIRIAL  =       173.9618  VOLUME     =        82.6674
                                                    Density    =         0.0038
 DV/DL  =         2.2797
 Ewald error estimate:   0.1586E-03
 ------------------------------------------------------------------------------

      A V E R A G E S   O V E R   50000 S T E P S

 NSTEP =   100000   TIME(PS) =    1100.000  TEMP(K) =   298.14  PRESS =     3.0
 Etot   =     -5479.2966  EKtot   =      1256.0207  EPtot      =     -6735.3173
 BOND   =         1.5913  ANGLE   =         1.9558  DIHED      =         0.3235
 1-4 NB =         0.0000  1-4 EEL =         1.1477  VDWAALS    =      1007.8198
 EELEC  =     -7748.1553  EHBOND  =         0.0000  RESTRAINT  =         0.0000
 EKCMT  =       628.2637  VIRIAL  =       626.8822  VOLUME     =     21375.2204
                                                    Density    =         0.9864
 DV/DL  =        -1.6061
 Ewald error estimate:   0.2078E-03
 ------------------------------------------------------------------------------

      R M S  F L U C T U A T I O N S

 NSTEP =   100000   TIME(PS) =    1100.000  TEMP(K) =     6.57  PRESS =   379.7
 Etot   =        51.0672  EKtot   =        27.6597  EPtot      =        41.4322
 BOND   =         1.0284  ANGLE   =         1.1436  DIHED      =         0.3186
 1-4 NB =         0.0000  1-4 EEL =         0.0343  VDWAALS    =        36.4511
 EELEC  =        61.5020  EHBOND  =         0.0000  RESTRAINT  =         0.0000
 EKCMT  =        19.7953  VIRIAL  =       173.9618  VOLUME     =        82.6674
                                                    Density    =         0.0038
 DV/DL  =         2.2797
 Ewald error estimate:   0.1586E-03
 ------------------------------------------------------------------------------

      DV/DL, AVERAGES OVER   50000 STEPS

 NSTEP =   100000   TIME(PS) =    1100.000  TEMP(K) =     6.57  PRESS =     0.0
 Etot   =         0.0000  EKtot   =         0.0000  EPtot      =        -1.6061
 BOND   =         0.0000  ANGLE   =         0.0000  DIHED      =         0.0000
 1-4 NB =         0.0000  1-4 EEL =        -3.8257  VDWAALS    =         0.0000
 EELEC  =         2.2195  EHBOND  =         0.0000  RESTRAINT  =         0.0000
 EKCMT  =         0.0000  VIRIAL  =         0.0000  VOLUME     =         0.0000
                                                    Density    =         0.0000
 DV/DL  =        -1.6061
 Ewald error estimate:   0.0000E+00
 ------------------------------------------------------------------------------

      A V E R A G E S   O V E R   50000 S T E P S

 NSTEP =   500000   TIME(PS) =    1500.000  TEMP(K) =   297.57  PRESS =     5.2
 Etot   =     -5484.5582  EKtot   =      1253.5980  EPtot      =     -6738.1562
 BOND   =         1.6181  ANGLE   =         1.7402  DIHED      =         0.3308
 1-4 NB =         0.0000  1-4 EEL =         1.1472  VDWAALS    =      1010.8655
 EELEC  =     -7753.8580  EHBOND  =         0.0000  RESTRAINT  =         0.0000
 EKCMT  =       626.3099  VIRIAL  =       623.9156  VOLUME     =     21393.4807
                                                    Density    =         0.9856
 DV/DL  =        -1.6408
 Ewald error estimate:   0.2040E-03
 ------------------------------------------------------------------------------

      R M S  F L U C T U A T I O N S

 NSTEP =   500000   TIME(PS) =    1500.000  TEMP(K) =     6.57  PRESS =   377.1
 Etot   =        50.9216  EKtot   =        27.6790  EPtot      =        40.5941
 BOND   =         1.0135  ANGLE   =         0.9811  DIHED      =         0.3170
 1-4 NB =         0.0000  1-4 EEL =         0.0339  VDWAALS    =        36.6208
 EELEC  =        61.8087  EHBOND  =         0.0000  RESTRAINT  =         0.0000
 EKCMT  =        18.9166  VIRIAL  =       173.5091  VOLUME     =        68.2607
                                                    Density    =         0.0031
 DV/DL  =         2.2728
 Ewald error estimate:   0.1556E-03
 ------------------------------------------------------------------------------

      A V E R A G E S   O V E R   50000 S T E P S

 NSTEP =   500000   TIME(PS) =    1500.000  TEMP(K) =   297.57  PRESS =     5.2
 Etot   =     -5484.5582  EKtot   =      1253.5980  EPtot      =     -6738.1562
 BOND   =         1.6181  ANGLE   =         1.7402  DIHED      =         0.3308
 1-4 NB =         0.0000  1-4 EEL =         1.1472  VDWAALS    =      1010.8655
 EELEC  =     -7753.8580  EHBOND  =         0.0000  RESTRAINT  =         0.0000
 EKCMT  =       626.3099  VIRIAL  =       623.9156  VOLUME     =     21393.4807
                                                    Density    =         0.9856
 DV/DL  =        -1.6408
 Ewald error estimate:   0.2040E-03
 ------------------------------------------------------------------------------

      R M S  F L U C T U A T I O N S

 NSTEP =   500000   TIME(PS) =    1500.000  TEMP(K) =     6.57  PRESS =   377.1
 Etot   =        50.9216  EKtot   =        27.6790  EPtot      =        40.5941
 BOND   =         1.0135  ANGLE   =         0.9811  DIHED      =         0.3170
 1-4 NB =         0.0000  1-4 EEL =         0.0339  VDWAALS    =        36.6208
 EELEC  =        61.8087  EHBOND  =         0.0000  RESTRAINT  =         0.0000
 EKCMT  =        18.9166  VIRIAL  =       173.5091  VOLUME     =        68.2607
                                                    Density    =         0.0031
 DV/DL  =         2.2728
 Ewald error estimate:   0.1556E-03
 ------------------------------------------------------------------------------

      DV/DL, AVERAGES OVER   50000 STEPS

 NSTEP =   500000   TIME(PS) =    1500.000  TEMP(K) =     6.57  PRESS =     0.0
 Etot   =         0.0000  EKtot   =         0.0000  EPtot      =        -1.6408
 BOND   =         0.0000  ANGLE   =         0.0000  DIHED      =         0.0000
 1-4 NB =         0.0000  1-4 EEL =        -3.8241  VDWAALS    =         0.0000
 EELEC  =         2.1833  EHBOND  =         0.0000  RESTRAINT  =         0.0000
 EKCMT  =         0.0000  VIRIAL  =         0.0000  VOLUME     =         0.0000
                                                    Density    =         0.0000
 DV/DL  =        -1.6408
 Ewald error estimate:   0.0000E+00
 ------------------------------------------------------------------------------

      A V E R A G E S   O V E R  500000 S T E P S

 NSTEP =   500000   TIME(PS) =    1500.000  TEMP(K) =   297.62  PRESS =     0.9
 Etot   =     -5480.9971  EKtot   =      1253.8092  EPtot      =     -6734.8064
 BOND   =         1.5785  ANGLE   =         1.8187  DIHED      =         0.3116
 1-4 NB =         0.0000  1-4 EEL =         1.1474  VDWAALS    =      1009.2958
 EELEC  =     -7748.9583  EHBOND  =         0.0000  RESTRAINT  =         0.0000
 EKCMT  =       625.7366  VIRIAL  =       625.2989  VOLUME     =     21394.0393
                                                    Density    =         0.9856
 DV/DL  =        -1.6021
 Ewald error estimate:   0.2062E-03
 ------------------------------------------------------------------------------

      R M S  F L U C T U A T I O N S

 NSTEP =   500000   TIME(PS) =    1500.000  TEMP(K) =     6.40  PRESS =   381.1
 Etot   =        47.1431  EKtot   =        26.9644  EPtot      =        38.5726
 BOND   =         0.9929  ANGLE   =         1.0651  DIHED      =         0.3091
 1-4 NB =         0.0000  1-4 EEL =         0.0344  VDWAALS    =        37.6633
 EELEC  =        60.8262  EHBOND  =         0.0000  RESTRAINT  =         0.0000
 EKCMT  =        18.9401  VIRIAL  =       176.0327  VOLUME     =        82.3061
                                                    Density    =         0.0038
 DV/DL  =         2.2664
 Ewald error estimate:   0.1570E-03
 ------------------------------------------------------------------------------

      A V E R A G E S   O V E R  500000 S T E P S

 NSTEP =   500000   TIME(PS) =    1500.000  TEMP(K) =   297.62  PRESS =     0.9
 Etot   =     -5480.9971  EKtot   =      1253.8092  EPtot      =     -6734.8064
 BOND   =         1.5785  ANGLE   =         1.8187  DIHED      =         0.3116
 1-4 NB =         0.0000  1-4 EEL =         1.1474  VDWAALS    =      1009.2958
 EELEC  =     -7748.9583  EHBOND  =         0.0000  RESTRAINT  =         0.0000
 EKCMT  =       625.7366  VIRIAL  =       625.2989  VOLUME     =     21394.0393
                                                    Density    =         0.9856
 DV/DL  =        -1.6021
 Ewald error estimate:   0.2062E-03
 ------------------------------------------------------------------------------

      R M S  F L U C T U A T I O N S

 NSTEP =   500000   TIME(PS) =    1500.000  TEMP(K) =     6.40  PRESS =   381.1
 Etot   =        47.1431  EKtot   =        26.9644  EPtot      =        38.5726
 BOND   =         0.9929  ANGLE   =         1.0651  DIHED      =         0.3091
 1-4 NB =         0.0000  1-4 EEL =         0.0344  VDWAALS    =        37.6633
 EELEC  =        60.8262  EHBOND  =         0.0000  RESTRAINT  =         0.0000
 EKCMT  =        18.9401  VIRIAL  =       176.0327  VOLUME     =        82.3061
                                                    Density    =         0.0038
 DV/DL  =         2.2664
 Ewald error estimate:   0.1570E-03
 ------------------------------------------------------------------------------

      DV/DL, AVERAGES OVER  500000 STEPS

 NSTEP =   500000   TIME(PS) =    1500.000  TEMP(K) =     6.40  PRESS =     0.0
 Etot   =         0.0000  EKtot   =         0.0000  EPtot      =        -1.6021
 BOND   =         0.0000  ANGLE   =         0.0000  DIHED      =         0.0000
 1-4 NB =         0.0000  1-4 EEL =        -3.8246  VDWAALS    =         0.0000
 EELEC  =         2.2225  EHBOND  =         0.0000  RESTRAINT  =         0.0000
 EKCMT  =         0.0000  VIRIAL  =         0.0000  VOLUME     =         0.0000
                                                    Density    =         0.0000
 DV/DL  =        -1.6021
 Ewald error estimate:   0.0000E+00
 ------------------------------------------------------------------------------
