-------------------------------------------------------
          Amber 14 SANDER                              2014
          -------------------------------------------------------

  [-O]verwriting output

File Assignments:

 Here is the input file:

MD simulation
 &cntrl
   imin = 0, nstlim = 500000, irest = 1, ntx = 5, dt = 0.001,
   ntt = 3, temp0 = 298.0, gamma_ln = 2.0, ig = -1,
   ntp = 1, pres0 = 1.01325, taup = 2.0,
   ntb = 2,
   ioutfm = 1, iwrap = 1,
   ntwe = 10000, ntwx = 10000, ntpr = 10000, ntwr = 50000, ntave = 50000,

   ntc = 2, ntf = 1,
   noshakemask = ':1,2',

   icfe = 1, ifsc = 0, clambda = 0.9, scalpha = 0.5, scbeta = 12.0,
   logdvdl = 1,
   ifmbar = 1, bar_intervall = 1000, bar_l_min = 0.0, bar_l_max = 1.0,
   bar_l_incr = 0.1,
   timask1 = ':1', timask2 = ':2'
 /
 &ewald
 /

Note: ig = -1. Setting random seed to     4301 based on wallclock time in
      microseconds and disabling the synchronization of random numbers
      between tasks to improve performance.

--------------------------------------------------------------------------------
   1.  RESOURCE   USE:
--------------------------------------------------------------------------------

 getting new box info from bottom of inpcrd
 NATOM  =    2121 NTYPES =       6 NBONH =    2117 MBONA  =       2
 NTHETH =      14 MTHETA =       0 NPHIH =       6 MPHIA  =       0
 NHPARM =       0 NPARM  =       0 NNB   =    2844 NRES   =     705
 NBONA  =       2 NTHETA =       0 NPHIA =       0 NUMBND =       5
 NUMANG =       3 NPTRA  =       1 NATYP =       6 NPHB   =       1
 IFBOX  =       1 NMXRS  =       6 IFCAP =       0 NEXTRA =       0
 NCOPY  =       0

     BOX TYPE: RECTILINEAR

--------------------------------------------------------------------------------
   2.  CONTROL  DATA  FOR  THE  RUN
--------------------------------------------------------------------------------

L0

General flags:
     imin    =       0, nmropt  =       0

Nature and format of input:
     ntx     =       5, irest   =       1, ntrx    =       1

Nature and format of output:
     ntxo    =       1, ntpr    =   10000, ntrx    =       1, ntwr    =   50000
     iwrap   =       1, ntwx    =   10000, ntwv    =       0, ntwe    =   10000
     ioutfm  =       1, ntwprt  =       0, idecomp =       0, rbornstat=      0

Potential function:
     ntf     =       1, ntb     =       2, igb     =       0, nsnb    =      25
     ipol    =       0, gbsa    =       0, iesp    =       0
     dielc   =   1.00000, cut     =   8.00000, intdiel =   1.00000

Frozen or restrained atoms:
     ibelly  =       0, ntr     =       0

Molecular dynamics:
     nstlim  =    500000, nscm    =      1000, nrespa  =         1
     t       =   0.00000, dt      =   0.00100, vlimit  =  20.00000

Langevin dynamics temperature regulation:
     ig      =    4301
     temp0   = 298.00000, tempi   =   0.00000, gamma_ln=   2.00000

Pressure regulation:
     ntp     =       1
     pres0   =   1.01325, comp    =  44.60000, taup    =   2.00000

SHAKE:
     ntc     =       2, jfastw  =       0
     tol     =   0.00001

Free energy options:
     icfe    =       1, ifsc    =       0, klambda =       1
     clambda =  0.9000, scalpha =  0.5000, scbeta  = 12.0000
     sceeorder =       2
     dynlmb =  0.0000 logdvdl =       1

FEP MBAR options:
     ifmbar  =       1,  bar_intervall =     1000
     bar_l_min =0.0000,  bar_l_max =1.0000,  bar_l_incr =0.1000

Ewald parameters:
     verbose =       0, ew_type =       0, nbflag  =       1, use_pme =       1
     vdwmeth =       1, eedmeth =       1, netfrc  =       1
     Box X =   28.130   Box Y =   27.750   Box Z =   27.370
     Alpha =   90.000   Beta  =   90.000   Gamma =   90.000
     NFFT1 =   30       NFFT2 =   30       NFFT3 =   30
     Cutoff=    8.000   Tol   =0.100E-04
     Ewald Coefficient =  0.34864
     Interpolation order =    4

     TI Mask 1 :1; matches      6 atoms
     TI Mask 2 :2; matches      6 atoms
     TI region 1:    2115 atoms
     TI region 2:    2115 atoms

    MBAR - lambda values considered:
      11 total:  0.0000 0.1000 0.2000 0.3000 0.4000 0.5000 0.6000 0.7000 0.8000 0.9000 1.0000
    Extra energies will be computed    500 times.
     Checking for mismatched coordinates.
 Noshake mask :1,2; matches      12 atoms.

--------------------------------------------------------------------------------
   3.  ATOMIC COORDINATES AND VELOCITIES
--------------------------------------------------------------------------------

L0
 begin time read from input coords =  1000.000 ps

 Number of triangulated 3-point waters found:      703
   Removing shake constraints from O2    L0    1 -- H6    L0    1
   Removing shake constraints from C1    L0    1 -- H3    L0    1
   Removing shake constraints from C1    L0    1 -- H4    L0    1
   Removing shake constraints from C1    L0    1 -- H5    L0    1
   Removing shake constraints from O2    INT   2 -- H6    INT   2
   Removing shake constraints from C1    INT   2 -- H3    INT   2
   Removing shake constraints from C1    INT   2 -- H4    INT   2
   Removing shake constraints from C1    INT   2 -- H5    INT   2
 Number of shake restraints removed:        8

     Sum of charges for TI region  1 =   0.00000000
     Forcing neutrality...

     Sum of charges for TI region  2 =   0.00000000
     Forcing neutrality...

--------------------------------------------------------------------------------
   4.  RESULTS
 NSTEP =    10000   TIME(PS) =    1010.000  TEMP(K) =   287.54  PRESS =  -160.8
 Etot   =     -5460.1709  EKtot   =      1211.3519  EPtot      =     -6671.5228
 BOND   =         0.2398  ANGLE   =         0.5482  DIHED      =         0.5083
 1-4 NB =         0.0000  1-4 EEL =         0.3860  VDWAALS    =       987.5746
 EELEC  =     -7660.7797  EHBOND  =         0.0000  RESTRAINT  =         0.0000
 EKCMT  =       587.4886  VIRIAL  =       662.1668  VOLUME     =     21514.0252
                                                    Density    =         0.9800
 DV/DL  =        -2.1160
 Ewald error estimate:   0.5882E-04
 ------------------------------------------------------------------------------

      A V E R A G E S   O V E R   50000 S T E P S

 NSTEP =    50000   TIME(PS) =    1050.000  TEMP(K) =   296.88  PRESS =    -2.9
 Etot   =     -5494.5096  EKtot   =      1250.7201  EPtot      =     -6745.2297
 BOND   =         1.6880  ANGLE   =         1.8781  DIHED      =         0.3188
 1-4 NB =         0.0000  1-4 EEL =         0.3827  VDWAALS    =      1012.4264
 EELEC  =     -7761.9237  EHBOND  =         0.0000  RESTRAINT  =         0.0000
 EKCMT  =       623.9379  VIRIAL  =       625.2685  VOLUME     =     21395.1082
                                                    Density    =         0.9855
 DV/DL  =        -3.2332
 Ewald error estimate:   0.2029E-03
 ------------------------------------------------------------------------------

      R M S  F L U C T U A T I O N S

 NSTEP =    50000   TIME(PS) =    1050.000  TEMP(K) =     6.25  PRESS =   398.7
 Etot   =        45.1318  EKtot   =        26.3230  EPtot      =        37.3651
 BOND   =         1.0954  ANGLE   =         1.1762  DIHED      =         0.3099
 1-4 NB =         0.0000  1-4 EEL =         0.0110  VDWAALS    =        39.5313
 EELEC  =        60.6538  EHBOND  =         0.0000  RESTRAINT  =         0.0000
 EKCMT  =        19.5923  VIRIAL  =       184.5270  VOLUME     =       103.9174
                                                    Density    =         0.0048
 DV/DL  =         2.0796
 Ewald error estimate:   0.1540E-03
 ------------------------------------------------------------------------------

      A V E R A G E S   O V E R   50000 S T E P S

 NSTEP =    50000   TIME(PS) =    1050.000  TEMP(K) =   296.88  PRESS =    -2.9
 Etot   =     -5494.5096  EKtot   =      1250.7201  EPtot      =     -6745.2297
 BOND   =         1.6880  ANGLE   =         1.8781  DIHED      =         0.3188
 1-4 NB =         0.0000  1-4 EEL =         0.3827  VDWAALS    =      1012.4264
 EELEC  =     -7761.9237  EHBOND  =         0.0000  RESTRAINT  =         0.0000
 EKCMT  =       623.9379  VIRIAL  =       625.2685  VOLUME     =     21395.1082
                                                    Density    =         0.9855
 DV/DL  =        -3.2332
 Ewald error estimate:   0.2029E-03
 ------------------------------------------------------------------------------

      R M S  F L U C T U A T I O N S

 NSTEP =    50000   TIME(PS) =    1050.000  TEMP(K) =     6.25  PRESS =   398.7
 Etot   =        45.1318  EKtot   =        26.3230  EPtot      =        37.3651
 BOND   =         1.0954  ANGLE   =         1.1762  DIHED      =         0.3099
 1-4 NB =         0.0000  1-4 EEL =         0.0110  VDWAALS    =        39.5313
 EELEC  =        60.6538  EHBOND  =         0.0000  RESTRAINT  =         0.0000
 EKCMT  =        19.5923  VIRIAL  =       184.5270  VOLUME     =       103.9174
                                                    Density    =         0.0048
 DV/DL  =         2.0796
 Ewald error estimate:   0.1540E-03
 ------------------------------------------------------------------------------

      DV/DL, AVERAGES OVER   50000 STEPS

 NSTEP =    50000   TIME(PS) =    1050.000  TEMP(K) =     6.25  PRESS =     0.0
 Etot   =         0.0000  EKtot   =         0.0000  EPtot      =        -3.2332
 BOND   =         0.0000  ANGLE   =         0.0000  DIHED      =         0.0000
 1-4 NB =         0.0000  1-4 EEL =        -3.8272  VDWAALS    =         0.0000
 EELEC  =         0.5940  EHBOND  =         0.0000  RESTRAINT  =         0.0000
 EKCMT  =         0.0000  VIRIAL  =         0.0000  VOLUME     =         0.0000
                                                    Density    =         0.0000
 DV/DL  =        -3.2332
 Ewald error estimate:   0.0000E+00
 ------------------------------------------------------------------------------

      A V E R A G E S   O V E R   50000 S T E P S

 NSTEP =   100000   TIME(PS) =    1100.000  TEMP(K) =   298.58  PRESS =     9.8
 Etot   =     -5470.8371  EKtot   =      1257.8532  EPtot      =     -6728.6903
 BOND   =         1.5903  ANGLE   =         1.9240  DIHED      =         0.3152
 1-4 NB =         0.0000  1-4 EEL =         0.3828  VDWAALS    =      1007.7727
 EELEC  =     -7740.6752  EHBOND  =         0.0000  RESTRAINT  =         0.0000
 EKCMT  =       627.5728  VIRIAL  =       623.0541  VOLUME     =     21412.9799
                                                    Density    =         0.9847
 DV/DL  =        -3.3321
 Ewald error estimate:   0.2080E-03
 ------------------------------------------------------------------------------

      R M S  F L U C T U A T I O N S

 NSTEP =   100000   TIME(PS) =    1100.000  TEMP(K) =     6.58  PRESS =   392.8
 Etot   =        46.8842  EKtot   =        27.7307  EPtot      =        36.8590
 BOND   =         1.0008  ANGLE   =         1.0394  DIHED      =         0.3123
 1-4 NB =         0.0000  1-4 EEL =         0.0112  VDWAALS    =        37.9926
 EELEC  =        58.4019  EHBOND  =         0.0000  RESTRAINT  =         0.0000
 EKCMT  =        19.7644  VIRIAL  =       181.2757  VOLUME     =        83.8860
                                                    Density    =         0.0039
 DV/DL  =         2.0664
 Ewald error estimate:   0.1545E-03
 ------------------------------------------------------------------------------

      A V E R A G E S   O V E R   50000 S T E P S

 NSTEP =   100000   TIME(PS) =    1100.000  TEMP(K) =   298.58  PRESS =     9.8
 Etot   =     -5470.8371  EKtot   =      1257.8532  EPtot      =     -6728.6903
 BOND   =         1.5903  ANGLE   =         1.9240  DIHED      =         0.3152
 1-4 NB =         0.0000  1-4 EEL =         0.3828  VDWAALS    =      1007.7727
 EELEC  =     -7740.6752  EHBOND  =         0.0000  RESTRAINT  =         0.0000
 EKCMT  =       627.5728  VIRIAL  =       623.0541  VOLUME     =     21412.9799
                                                    Density    =         0.9847
 DV/DL  =        -3.3321
 Ewald error estimate:   0.2080E-03
 ------------------------------------------------------------------------------

      R M S  F L U C T U A T I O N S

 NSTEP =   100000   TIME(PS) =    1100.000  TEMP(K) =     6.58  PRESS =   392.8
 Etot   =        46.8842  EKtot   =        27.7307  EPtot      =        36.8590
 BOND   =         1.0008  ANGLE   =         1.0394  DIHED      =         0.3123
 1-4 NB =         0.0000  1-4 EEL =         0.0112  VDWAALS    =        37.9926
 EELEC  =        58.4019  EHBOND  =         0.0000  RESTRAINT  =         0.0000
 EKCMT  =        19.7644  VIRIAL  =       181.2757  VOLUME     =        83.8860
                                                    Density    =         0.0039
 DV/DL  =         2.0664
 Ewald error estimate:   0.1545E-03
 ------------------------------------------------------------------------------

      DV/DL, AVERAGES OVER   50000 STEPS

 NSTEP =   100000   TIME(PS) =    1100.000  TEMP(K) =     6.58  PRESS =     0.0
 Etot   =         0.0000  EKtot   =         0.0000  EPtot      =        -3.3321
 BOND   =         0.0000  ANGLE   =         0.0000  DIHED      =         0.0000
 1-4 NB =         0.0000  1-4 EEL =        -3.8276  VDWAALS    =         0.0000
 EELEC  =         0.4955  EHBOND  =         0.0000  RESTRAINT  =         0.0000
 EKCMT  =         0.0000  VIRIAL  =         0.0000  VOLUME     =         0.0000
                                                    Density    =         0.0000
 DV/DL  =        -3.3321
 Ewald error estimate:   0.0000E+00
 ------------------------------------------------------------------------------

      A V E R A G E S   O V E R   50000 S T E P S

 NSTEP =   500000   TIME(PS) =    1500.000  TEMP(K) =   297.38  PRESS =    -1.4
 Etot   =     -5485.0971  EKtot   =      1252.8092  EPtot      =     -6737.9063
 BOND   =         1.5368  ANGLE   =         1.8583  DIHED      =         0.2812
 1-4 NB =         0.0000  1-4 EEL =         0.3827  VDWAALS    =      1008.4288
 EELEC  =     -7750.3941  EHBOND  =         0.0000  RESTRAINT  =         0.0000
 EKCMT  =       623.0599  VIRIAL  =       623.6921  VOLUME     =     21370.6933
                                                    Density    =         0.9866
 DV/DL  =        -3.2267
 Ewald error estimate:   0.2032E-03
 ------------------------------------------------------------------------------

      R M S  F L U C T U A T I O N S

 NSTEP =   500000   TIME(PS) =    1500.000  TEMP(K) =     6.62  PRESS =   379.2
 Etot   =        51.6433  EKtot   =        27.9020  EPtot      =        40.3288
 BOND   =         0.9100  ANGLE   =         1.0503  DIHED      =         0.2986
 1-4 NB =         0.0000  1-4 EEL =         0.0118  VDWAALS    =        37.6814
 EELEC  =        62.9814  EHBOND  =         0.0000  RESTRAINT  =         0.0000
 EKCMT  =        18.9891  VIRIAL  =       174.6118  VOLUME     =        62.9998
                                                    Density    =         0.0029
 DV/DL  =         2.0869
 Ewald error estimate:   0.1543E-03
 ------------------------------------------------------------------------------

      A V E R A G E S   O V E R   50000 S T E P S

 NSTEP =   500000   TIME(PS) =    1500.000  TEMP(K) =   297.38  PRESS =    -1.4
 Etot   =     -5485.0971  EKtot   =      1252.8092  EPtot      =     -6737.9063
 BOND   =         1.5368  ANGLE   =         1.8583  DIHED      =         0.2812
 1-4 NB =         0.0000  1-4 EEL =         0.3827  VDWAALS    =      1008.4288
 EELEC  =     -7750.3941  EHBOND  =         0.0000  RESTRAINT  =         0.0000
 EKCMT  =       623.0599  VIRIAL  =       623.6921  VOLUME     =     21370.6933
                                                    Density    =         0.9866
 DV/DL  =        -3.2267
 Ewald error estimate:   0.2032E-03
 ------------------------------------------------------------------------------

      R M S  F L U C T U A T I O N S

 NSTEP =   500000   TIME(PS) =    1500.000  TEMP(K) =     6.62  PRESS =   379.2
 Etot   =        51.6433  EKtot   =        27.9020  EPtot      =        40.3288
 BOND   =         0.9100  ANGLE   =         1.0503  DIHED      =         0.2986
 1-4 NB =         0.0000  1-4 EEL =         0.0118  VDWAALS    =        37.6814
 EELEC  =        62.9814  EHBOND  =         0.0000  RESTRAINT  =         0.0000
 EKCMT  =        18.9891  VIRIAL  =       174.6118  VOLUME     =        62.9998
                                                    Density    =         0.0029
 DV/DL  =         2.0869
 Ewald error estimate:   0.1543E-03
 ------------------------------------------------------------------------------

      DV/DL, AVERAGES OVER   50000 STEPS

 NSTEP =   500000   TIME(PS) =    1500.000  TEMP(K) =     6.62  PRESS =     0.0
 Etot   =         0.0000  EKtot   =         0.0000  EPtot      =        -3.2267
 BOND   =         0.0000  ANGLE   =         0.0000  DIHED      =         0.0000
 1-4 NB =         0.0000  1-4 EEL =        -3.8271  VDWAALS    =         0.0000
 EELEC  =         0.6003  EHBOND  =         0.0000  RESTRAINT  =         0.0000
 EKCMT  =         0.0000  VIRIAL  =         0.0000  VOLUME     =         0.0000
                                                    Density    =         0.0000
 DV/DL  =        -3.2267
 Ewald error estimate:   0.0000E+00
 ------------------------------------------------------------------------------

      A V E R A G E S   O V E R  500000 S T E P S

 NSTEP =   500000   TIME(PS) =    1500.000  TEMP(K) =   297.91  PRESS =     0.9
 Etot   =     -5477.4192  EKtot   =      1255.0335  EPtot      =     -6732.4527
 BOND   =         1.5450  ANGLE   =         1.8309  DIHED      =         0.3099
 1-4 NB =         0.0000  1-4 EEL =         0.3828  VDWAALS    =      1007.9517
 EELEC  =     -7744.4730  EHBOND  =         0.0000  RESTRAINT  =         0.0000
 EKCMT  =       625.9357  VIRIAL  =       625.5151  VOLUME     =     21400.5453
                                                    Density    =         0.9853
 DV/DL  =        -3.1753
 Ewald error estimate:   0.2008E-03
 ------------------------------------------------------------------------------

      R M S  F L U C T U A T I O N S

 NSTEP =   500000   TIME(PS) =    1500.000  TEMP(K) =     6.53  PRESS =   388.4
 Etot   =        49.8541  EKtot   =        27.5176  EPtot      =        39.7975
 BOND   =         0.9918  ANGLE   =         1.0616  DIHED      =         0.3072
 1-4 NB =         0.0000  1-4 EEL =         0.0114  VDWAALS    =        37.8414
 EELEC  =        61.1758  EHBOND  =         0.0000  RESTRAINT  =         0.0000
 EKCMT  =        19.5560  VIRIAL  =       179.0689  VOLUME     =       100.5895
                                                    Density    =         0.0046
 DV/DL  =         2.0537
 Ewald error estimate:   0.1513E-03
 ------------------------------------------------------------------------------

      A V E R A G E S   O V E R  500000 S T E P S

 NSTEP =   500000   TIME(PS) =    1500.000  TEMP(K) =   297.91  PRESS =     0.9
 Etot   =     -5477.4192  EKtot   =      1255.0335  EPtot      =     -6732.4527
 BOND   =         1.5450  ANGLE   =         1.8309  DIHED      =         0.3099
 1-4 NB =         0.0000  1-4 EEL =         0.3828  VDWAALS    =      1007.9517
 EELEC  =     -7744.4730  EHBOND  =         0.0000  RESTRAINT  =         0.0000
 EKCMT  =       625.9357  VIRIAL  =       625.5151  VOLUME     =     21400.5453
                                                    Density    =         0.9853
 DV/DL  =        -3.1753
 Ewald error estimate:   0.2008E-03
 ------------------------------------------------------------------------------

      R M S  F L U C T U A T I O N S

 NSTEP =   500000   TIME(PS) =    1500.000  TEMP(K) =     6.53  PRESS =   388.4
 Etot   =        49.8541  EKtot   =        27.5176  EPtot      =        39.7975
 BOND   =         0.9918  ANGLE   =         1.0616  DIHED      =         0.3072
 1-4 NB =         0.0000  1-4 EEL =         0.0114  VDWAALS    =        37.8414
 EELEC  =        61.1758  EHBOND  =         0.0000  RESTRAINT  =         0.0000
 EKCMT  =        19.5560  VIRIAL  =       179.0689  VOLUME     =       100.5895
                                                    Density    =         0.0046
 DV/DL  =         2.0537
 Ewald error estimate:   0.1513E-03
 ------------------------------------------------------------------------------

      DV/DL, AVERAGES OVER  500000 STEPS

 NSTEP =   500000   TIME(PS) =    1500.000  TEMP(K) =     6.53  PRESS =     0.0
 Etot   =         0.0000  EKtot   =         0.0000  EPtot      =        -3.1753
 BOND   =         0.0000  ANGLE   =         0.0000  DIHED      =         0.0000
 1-4 NB =         0.0000  1-4 EEL =        -3.8278  VDWAALS    =         0.0000
 EELEC  =         0.6524  EHBOND  =         0.0000  RESTRAINT  =         0.0000
 EKCMT  =         0.0000  VIRIAL  =         0.0000  VOLUME     =         0.0000
                                                    Density    =         0.0000
 DV/DL  =        -3.1753
 Ewald error estimate:   0.0000E+00
 ------------------------------------------------------------------------------
