-------------------------------------------------------
          Amber 14 SANDER                              2014
          -------------------------------------------------------

  [-O]verwriting output

File Assignments:

 Here is the input file:

MD simulation
 &cntrl
   imin = 0, nstlim = 500000, irest = 1, ntx = 5, dt = 0.001,
   ntt = 3, temp0 = 298.0, gamma_ln = 2.0, ig = -1,
   ntp = 1, pres0 = 1.01325, taup = 2.0,
   ntb = 2,
   ioutfm = 1, iwrap = 1,
   ntwe = 10000, ntwx = 10000, ntpr = 10000, ntwr = 50000, ntave = 50000,

   ntc = 2, ntf = 1,
   noshakemask = ':1,2',

   icfe = 1, ifsc = 0, clambda = 0.9, scalpha = 0.5, scbeta = 12.0,
   logdvdl = 1,
   ifmbar = 1, bar_intervall = 1000, bar_l_min = 0.0, bar_l_max = 1.0,
   bar_l_incr = 0.1,
   timask1 = ':1', timask2 = ':2'
 /
 &ewald
 /

Note: ig = -1. Setting random seed to    20417 based on wallclock time in
      microseconds and disabling the synchronization of random numbers
      between tasks to improve performance.

--------------------------------------------------------------------------------
   1.  RESOURCE   USE:
--------------------------------------------------------------------------------

 getting new box info from bottom of inpcrd
 NATOM  =    2121 NTYPES =       6 NBONH =    2117 MBONA  =       2
 NTHETH =      14 MTHETA =       0 NPHIH =       6 MPHIA  =       0
 NHPARM =       0 NPARM  =       0 NNB   =    2844 NRES   =     705
 NBONA  =       2 NTHETA =       0 NPHIA =       0 NUMBND =       5
 NUMANG =       3 NPTRA  =       1 NATYP =       6 NPHB   =       1
 IFBOX  =       1 NMXRS  =       6 IFCAP =       0 NEXTRA =       0
 NCOPY  =       0

     BOX TYPE: RECTILINEAR

--------------------------------------------------------------------------------
   2.  CONTROL  DATA  FOR  THE  RUN
--------------------------------------------------------------------------------

L0

General flags:
     imin    =       0, nmropt  =       0

Nature and format of input:
     ntx     =       5, irest   =       1, ntrx    =       1

Nature and format of output:
     ntxo    =       1, ntpr    =   10000, ntrx    =       1, ntwr    =   50000
     iwrap   =       1, ntwx    =   10000, ntwv    =       0, ntwe    =   10000
     ioutfm  =       1, ntwprt  =       0, idecomp =       0, rbornstat=      0

Potential function:
     ntf     =       1, ntb     =       2, igb     =       0, nsnb    =      25
     ipol    =       0, gbsa    =       0, iesp    =       0
     dielc   =   1.00000, cut     =   8.00000, intdiel =   1.00000

Frozen or restrained atoms:
     ibelly  =       0, ntr     =       0

Molecular dynamics:
     nstlim  =    500000, nscm    =      1000, nrespa  =         1
     t       =   0.00000, dt      =   0.00100, vlimit  =  20.00000

Langevin dynamics temperature regulation:
     ig      =   20417
     temp0   = 298.00000, tempi   =   0.00000, gamma_ln=   2.00000

Pressure regulation:
     ntp     =       1
     pres0   =   1.01325, comp    =  44.60000, taup    =   2.00000

SHAKE:
     ntc     =       2, jfastw  =       0
     tol     =   0.00001

Free energy options:
     icfe    =       1, ifsc    =       0, klambda =       1
     clambda =  0.9000, scalpha =  0.5000, scbeta  = 12.0000
     sceeorder =       2
     dynlmb =  0.0000 logdvdl =       1

FEP MBAR options:
     ifmbar  =       1,  bar_intervall =     1000
     bar_l_min =0.0000,  bar_l_max =1.0000,  bar_l_incr =0.1000

Ewald parameters:
     verbose =       0, ew_type =       0, nbflag  =       1, use_pme =       1
     vdwmeth =       1, eedmeth =       1, netfrc  =       1
     Box X =   28.121   Box Y =   27.741   Box Z =   27.361
     Alpha =   90.000   Beta  =   90.000   Gamma =   90.000
     NFFT1 =   30       NFFT2 =   30       NFFT3 =   30
     Cutoff=    8.000   Tol   =0.100E-04
     Ewald Coefficient =  0.34864
     Interpolation order =    4

     TI Mask 1 :1; matches      6 atoms
     TI Mask 2 :2; matches      6 atoms
     TI region 1:    2115 atoms
     TI region 2:    2115 atoms

    MBAR - lambda values considered:
      11 total:  0.0000 0.1000 0.2000 0.3000 0.4000 0.5000 0.6000 0.7000 0.8000 0.9000 1.0000
    Extra energies will be computed    500 times.
     Checking for mismatched coordinates.
 Noshake mask :1,2; matches      12 atoms.

--------------------------------------------------------------------------------
   3.  ATOMIC COORDINATES AND VELOCITIES
--------------------------------------------------------------------------------

L0
 begin time read from input coords =   500.000 ps

 Number of triangulated 3-point waters found:      703
   Removing shake constraints from O2    L0    1 -- H6    L0    1
   Removing shake constraints from C1    L0    1 -- H3    L0    1
   Removing shake constraints from C1    L0    1 -- H4    L0    1
   Removing shake constraints from C1    L0    1 -- H5    L0    1
   Removing shake constraints from O2    INT   2 -- H6    INT   2
   Removing shake constraints from C1    INT   2 -- H3    INT   2
   Removing shake constraints from C1    INT   2 -- H4    INT   2
   Removing shake constraints from C1    INT   2 -- H5    INT   2
 Number of shake restraints removed:        8

     Sum of charges for TI region  1 =   0.00000000
     Forcing neutrality...

     Sum of charges for TI region  2 =   0.00000000
     Forcing neutrality...

--------------------------------------------------------------------------------
   4.  RESULTS
 NSTEP =    10000   TIME(PS) =     510.000  TEMP(K) =   301.41  PRESS =   179.2
 Etot   =     -5439.0312  EKtot   =      1269.8049  EPtot      =     -6708.8361
 BOND   =         1.8835  ANGLE   =         3.5194  DIHED      =         0.1543
 1-4 NB =         0.0000  1-4 EEL =         0.3735  VDWAALS    =      1007.5901
 EELEC  =     -7722.3567  EHBOND  =         0.0000  RESTRAINT  =         0.0000
 EKCMT  =       620.3295  VIRIAL  =       537.8026  VOLUME     =     21327.4509
                                                    Density    =         0.9886
 DV/DL  =        -2.5688
 Ewald error estimate:   0.8325E-04
 ------------------------------------------------------------------------------

      A V E R A G E S   O V E R   50000 S T E P S

 NSTEP =    50000   TIME(PS) =     550.000  TEMP(K) =   298.70  PRESS =     0.6
 Etot   =     -5470.7245  EKtot   =      1258.3676  EPtot      =     -6729.0921
 BOND   =         1.6068  ANGLE   =         1.8634  DIHED      =         0.2922
 1-4 NB =         0.0000  1-4 EEL =         0.3827  VDWAALS    =      1007.6296
 EELEC  =     -7740.8668  EHBOND  =         0.0000  RESTRAINT  =         0.0000
 EKCMT  =       626.8851  VIRIAL  =       626.6040  VOLUME     =     21399.3923
                                                    Density    =         0.9853
 DV/DL  =        -3.0606
 Ewald error estimate:   0.2050E-03
 ------------------------------------------------------------------------------

      R M S  F L U C T U A T I O N S

 NSTEP =    50000   TIME(PS) =     550.000  TEMP(K) =     6.70  PRESS =   387.9
 Etot   =        52.9492  EKtot   =        28.2350  EPtot      =        41.5263
 BOND   =         0.9916  ANGLE   =         1.0702  DIHED      =         0.3033
 1-4 NB =         0.0000  1-4 EEL =         0.0116  VDWAALS    =        37.3940
 EELEC  =        61.5684  EHBOND  =         0.0000  RESTRAINT  =         0.0000
 EKCMT  =        19.8347  VIRIAL  =       180.1067  VOLUME     =        92.6926
                                                    Density    =         0.0043
 DV/DL  =         2.0357
 Ewald error estimate:   0.1555E-03
 ------------------------------------------------------------------------------

      A V E R A G E S   O V E R   50000 S T E P S

 NSTEP =    50000   TIME(PS) =     550.000  TEMP(K) =   298.70  PRESS =     0.6
 Etot   =     -5470.7245  EKtot   =      1258.3676  EPtot      =     -6729.0921
 BOND   =         1.6068  ANGLE   =         1.8634  DIHED      =         0.2922
 1-4 NB =         0.0000  1-4 EEL =         0.3827  VDWAALS    =      1007.6296
 EELEC  =     -7740.8668  EHBOND  =         0.0000  RESTRAINT  =         0.0000
 EKCMT  =       626.8851  VIRIAL  =       626.6040  VOLUME     =     21399.3923
                                                    Density    =         0.9853
 DV/DL  =        -3.0606
 Ewald error estimate:   0.2050E-03
 ------------------------------------------------------------------------------

      R M S  F L U C T U A T I O N S

 NSTEP =    50000   TIME(PS) =     550.000  TEMP(K) =     6.70  PRESS =   387.9
 Etot   =        52.9492  EKtot   =        28.2350  EPtot      =        41.5263
 BOND   =         0.9916  ANGLE   =         1.0702  DIHED      =         0.3033
 1-4 NB =         0.0000  1-4 EEL =         0.0116  VDWAALS    =        37.3940
 EELEC  =        61.5684  EHBOND  =         0.0000  RESTRAINT  =         0.0000
 EKCMT  =        19.8347  VIRIAL  =       180.1067  VOLUME     =        92.6926
                                                    Density    =         0.0043
 DV/DL  =         2.0357
 Ewald error estimate:   0.1555E-03
 ------------------------------------------------------------------------------

      DV/DL, AVERAGES OVER   50000 STEPS

 NSTEP =    50000   TIME(PS) =     550.000  TEMP(K) =     6.70  PRESS =     0.0
 Etot   =         0.0000  EKtot   =         0.0000  EPtot      =        -3.0606
 BOND   =         0.0000  ANGLE   =         0.0000  DIHED      =         0.0000
 1-4 NB =         0.0000  1-4 EEL =        -3.8271  VDWAALS    =         0.0000
 EELEC  =         0.7665  EHBOND  =         0.0000  RESTRAINT  =         0.0000
 EKCMT  =         0.0000  VIRIAL  =         0.0000  VOLUME     =         0.0000
                                                    Density    =         0.0000
 DV/DL  =        -3.0606
 Ewald error estimate:   0.0000E+00
 ------------------------------------------------------------------------------

      A V E R A G E S   O V E R   50000 S T E P S

 NSTEP =   100000   TIME(PS) =     600.000  TEMP(K) =   298.48  PRESS =     8.9
 Etot   =     -5471.9242  EKtot   =      1257.4325  EPtot      =     -6729.3567
 BOND   =         1.5720  ANGLE   =         1.7160  DIHED      =         0.2968
 1-4 NB =         0.0000  1-4 EEL =         0.3827  VDWAALS    =      1008.5179
 EELEC  =     -7741.8420  EHBOND  =         0.0000  RESTRAINT  =         0.0000
 EKCMT  =       627.3466  VIRIAL  =       623.2197  VOLUME     =     21422.0655
                                                    Density    =         0.9843
 DV/DL  =        -3.1843
 Ewald error estimate:   0.2054E-03
 ------------------------------------------------------------------------------

      R M S  F L U C T U A T I O N S

 NSTEP =   100000   TIME(PS) =     600.000  TEMP(K) =     6.53  PRESS =   393.3
 Etot   =        47.7157  EKtot   =        27.5256  EPtot      =        38.4637
 BOND   =         0.9762  ANGLE   =         0.9578  DIHED      =         0.3105
 1-4 NB =         0.0000  1-4 EEL =         0.0118  VDWAALS    =        37.3337
 EELEC  =        59.8783  EHBOND  =         0.0000  RESTRAINT  =         0.0000
 EKCMT  =        19.5037  VIRIAL  =       179.7756  VOLUME     =        83.5688
                                                    Density    =         0.0038
 DV/DL  =         2.0624
 Ewald error estimate:   0.1550E-03
 ------------------------------------------------------------------------------

      A V E R A G E S   O V E R   50000 S T E P S

 NSTEP =   100000   TIME(PS) =     600.000  TEMP(K) =   298.48  PRESS =     8.9
 Etot   =     -5471.9242  EKtot   =      1257.4325  EPtot      =     -6729.3567
 BOND   =         1.5720  ANGLE   =         1.7160  DIHED      =         0.2968
 1-4 NB =         0.0000  1-4 EEL =         0.3827  VDWAALS    =      1008.5179
 EELEC  =     -7741.8420  EHBOND  =         0.0000  RESTRAINT  =         0.0000
 EKCMT  =       627.3466  VIRIAL  =       623.2197  VOLUME     =     21422.0655
                                                    Density    =         0.9843
 DV/DL  =        -3.1843
 Ewald error estimate:   0.2054E-03
 ------------------------------------------------------------------------------

      R M S  F L U C T U A T I O N S

 NSTEP =   100000   TIME(PS) =     600.000  TEMP(K) =     6.53  PRESS =   393.3
 Etot   =        47.7157  EKtot   =        27.5256  EPtot      =        38.4637
 BOND   =         0.9762  ANGLE   =         0.9578  DIHED      =         0.3105
 1-4 NB =         0.0000  1-4 EEL =         0.0118  VDWAALS    =        37.3337
 EELEC  =        59.8783  EHBOND  =         0.0000  RESTRAINT  =         0.0000
 EKCMT  =        19.5037  VIRIAL  =       179.7756  VOLUME     =        83.5688
                                                    Density    =         0.0038
 DV/DL  =         2.0624
 Ewald error estimate:   0.1550E-03
 ------------------------------------------------------------------------------

      DV/DL, AVERAGES OVER   50000 STEPS

 NSTEP =   100000   TIME(PS) =     600.000  TEMP(K) =     6.53  PRESS =     0.0
 Etot   =         0.0000  EKtot   =         0.0000  EPtot      =        -3.1843
 BOND   =         0.0000  ANGLE   =         0.0000  DIHED      =         0.0000
 1-4 NB =         0.0000  1-4 EEL =        -3.8267  VDWAALS    =         0.0000
 EELEC  =         0.6423  EHBOND  =         0.0000  RESTRAINT  =         0.0000
 EKCMT  =         0.0000  VIRIAL  =         0.0000  VOLUME     =         0.0000
                                                    Density    =         0.0000
 DV/DL  =        -3.1843
 Ewald error estimate:   0.0000E+00
 ------------------------------------------------------------------------------

      A V E R A G E S   O V E R   50000 S T E P S

 NSTEP =   500000   TIME(PS) =    1000.000  TEMP(K) =   298.05  PRESS =     5.4
 Etot   =     -5472.2599  EKtot   =      1255.6207  EPtot      =     -6727.8806
 BOND   =         1.4808  ANGLE   =         1.8100  DIHED      =         0.3125
 1-4 NB =         0.0000  1-4 EEL =         0.3828  VDWAALS    =      1009.5186
 EELEC  =     -7741.3853  EHBOND  =         0.0000  RESTRAINT  =         0.0000
 EKCMT  =       626.8200  VIRIAL  =       624.3400  VOLUME     =     21438.1449
                                                    Density    =         0.9835
 DV/DL  =        -3.1871
 Ewald error estimate:   0.2019E-03
 ------------------------------------------------------------------------------

      R M S  F L U C T U A T I O N S

 NSTEP =   500000   TIME(PS) =    1000.000  TEMP(K) =     6.68  PRESS =   394.3
 Etot   =        47.5190  EKtot   =        28.1267  EPtot      =        37.1964
 BOND   =         0.8964  ANGLE   =         1.0431  DIHED      =         0.3057
 1-4 NB =         0.0000  1-4 EEL =         0.0113  VDWAALS    =        39.4566
 EELEC  =        61.7322  EHBOND  =         0.0000  RESTRAINT  =         0.0000
 EKCMT  =        19.7722  VIRIAL  =       182.7249  VOLUME     =        74.8692
                                                    Density    =         0.0034
 DV/DL  =         2.0059
 Ewald error estimate:   0.1479E-03
 ------------------------------------------------------------------------------

      A V E R A G E S   O V E R   50000 S T E P S

 NSTEP =   500000   TIME(PS) =    1000.000  TEMP(K) =   298.05  PRESS =     5.4
 Etot   =     -5472.2599  EKtot   =      1255.6207  EPtot      =     -6727.8806
 BOND   =         1.4808  ANGLE   =         1.8100  DIHED      =         0.3125
 1-4 NB =         0.0000  1-4 EEL =         0.3828  VDWAALS    =      1009.5186
 EELEC  =     -7741.3853  EHBOND  =         0.0000  RESTRAINT  =         0.0000
 EKCMT  =       626.8200  VIRIAL  =       624.3400  VOLUME     =     21438.1449
                                                    Density    =         0.9835
 DV/DL  =        -3.1871
 Ewald error estimate:   0.2019E-03
 ------------------------------------------------------------------------------

      R M S  F L U C T U A T I O N S

 NSTEP =   500000   TIME(PS) =    1000.000  TEMP(K) =     6.68  PRESS =   394.3
 Etot   =        47.5190  EKtot   =        28.1267  EPtot      =        37.1964
 BOND   =         0.8964  ANGLE   =         1.0431  DIHED      =         0.3057
 1-4 NB =         0.0000  1-4 EEL =         0.0113  VDWAALS    =        39.4566
 EELEC  =        61.7322  EHBOND  =         0.0000  RESTRAINT  =         0.0000
 EKCMT  =        19.7722  VIRIAL  =       182.7249  VOLUME     =        74.8692
                                                    Density    =         0.0034
 DV/DL  =         2.0059
 Ewald error estimate:   0.1479E-03
 ------------------------------------------------------------------------------

      DV/DL, AVERAGES OVER   50000 STEPS

 NSTEP =   500000   TIME(PS) =    1000.000  TEMP(K) =     6.68  PRESS =     0.0
 Etot   =         0.0000  EKtot   =         0.0000  EPtot      =        -3.1871
 BOND   =         0.0000  ANGLE   =         0.0000  DIHED      =         0.0000
 1-4 NB =         0.0000  1-4 EEL =        -3.8275  VDWAALS    =         0.0000
 EELEC  =         0.6404  EHBOND  =         0.0000  RESTRAINT  =         0.0000
 EKCMT  =         0.0000  VIRIAL  =         0.0000  VOLUME     =         0.0000
                                                    Density    =         0.0000
 DV/DL  =        -3.1871
 Ewald error estimate:   0.0000E+00
 ------------------------------------------------------------------------------

      A V E R A G E S   O V E R  500000 S T E P S

 NSTEP =   500000   TIME(PS) =    1000.000  TEMP(K) =   297.57  PRESS =     1.1
 Etot   =     -5481.1533  EKtot   =      1253.6291  EPtot      =     -6734.7824
 BOND   =         1.5614  ANGLE   =         1.7763  DIHED      =         0.3050
 1-4 NB =         0.0000  1-4 EEL =         0.3828  VDWAALS    =      1009.0336
 EELEC  =     -7747.8416  EHBOND  =         0.0000  RESTRAINT  =         0.0000
 EKCMT  =       625.4091  VIRIAL  =       624.9017  VOLUME     =     21394.7844
                                                    Density    =         0.9855
 DV/DL  =        -3.1346
 Ewald error estimate:   0.2049E-03
 ------------------------------------------------------------------------------

      R M S  F L U C T U A T I O N S

 NSTEP =   500000   TIME(PS) =    1000.000  TEMP(K) =     6.46  PRESS =   384.5
 Etot   =        47.2581  EKtot   =        27.2100  EPtot      =        38.0527
 BOND   =         0.9632  ANGLE   =         1.0120  DIHED      =         0.3071
 1-4 NB =         0.0000  1-4 EEL =         0.0116  VDWAALS    =        37.3393
 EELEC  =        59.4673  EHBOND  =         0.0000  RESTRAINT  =         0.0000
 EKCMT  =        19.6344  VIRIAL  =       177.3960  VOLUME     =        88.1569
                                                    Density    =         0.0041
 DV/DL  =         2.0763
 Ewald error estimate:   0.1543E-03
 ------------------------------------------------------------------------------

      A V E R A G E S   O V E R  500000 S T E P S

 NSTEP =   500000   TIME(PS) =    1000.000  TEMP(K) =   297.57  PRESS =     1.1
 Etot   =     -5481.1533  EKtot   =      1253.6291  EPtot      =     -6734.7824
 BOND   =         1.5614  ANGLE   =         1.7763  DIHED      =         0.3050
 1-4 NB =         0.0000  1-4 EEL =         0.3828  VDWAALS    =      1009.0336
 EELEC  =     -7747.8416  EHBOND  =         0.0000  RESTRAINT  =         0.0000
 EKCMT  =       625.4091  VIRIAL  =       624.9017  VOLUME     =     21394.7844
                                                    Density    =         0.9855
 DV/DL  =        -3.1346
 Ewald error estimate:   0.2049E-03
 ------------------------------------------------------------------------------

      R M S  F L U C T U A T I O N S

 NSTEP =   500000   TIME(PS) =    1000.000  TEMP(K) =     6.46  PRESS =   384.5
 Etot   =        47.2581  EKtot   =        27.2100  EPtot      =        38.0527
 BOND   =         0.9632  ANGLE   =         1.0120  DIHED      =         0.3071
 1-4 NB =         0.0000  1-4 EEL =         0.0116  VDWAALS    =        37.3393
 EELEC  =        59.4673  EHBOND  =         0.0000  RESTRAINT  =         0.0000
 EKCMT  =        19.6344  VIRIAL  =       177.3960  VOLUME     =        88.1569
                                                    Density    =         0.0041
 DV/DL  =         2.0763
 Ewald error estimate:   0.1543E-03
 ------------------------------------------------------------------------------

      DV/DL, AVERAGES OVER  500000 STEPS

 NSTEP =   500000   TIME(PS) =    1000.000  TEMP(K) =     6.46  PRESS =     0.0
 Etot   =         0.0000  EKtot   =         0.0000  EPtot      =        -3.1346
 BOND   =         0.0000  ANGLE   =         0.0000  DIHED      =         0.0000
 1-4 NB =         0.0000  1-4 EEL =        -3.8276  VDWAALS    =         0.0000
 EELEC  =         0.6929  EHBOND  =         0.0000  RESTRAINT  =         0.0000
 EKCMT  =         0.0000  VIRIAL  =         0.0000  VOLUME     =         0.0000
                                                    Density    =         0.0000
 DV/DL  =        -3.1346
 Ewald error estimate:   0.0000E+00
 ------------------------------------------------------------------------------
