-------------------------------------------------------
          Amber 14 SANDER                              2014
          -------------------------------------------------------

  [-O]verwriting output

File Assignments:

 Here is the input file:

MD simulation
 &cntrl
   imin = 0, nstlim = 500000, irest = 1, ntx = 5, dt = 0.001,
   ntt = 3, temp0 = 298.0, gamma_ln = 2.0, ig = -1,
   ntp = 1, pres0 = 1.01325, taup = 2.0,
   ntb = 2,
   ioutfm = 1, iwrap = 1,
   ntwe = 10000, ntwx = 10000, ntpr = 10000, ntwr = 50000, ntave = 50000,

   ntc = 2, ntf = 1,
   noshakemask = ':1,2',

   icfe = 1, ifsc = 0, clambda = 0.0, scalpha = 0.5, scbeta = 12.0,
   logdvdl = 1,
   ifmbar = 1, bar_intervall = 1000, bar_l_min = 0.0, bar_l_max = 1.0,
   bar_l_incr = 0.1,
   timask1 = ':1', timask2 = ':2'
 /
 &ewald
 /

Note: ig = -1. Setting random seed to   785434 based on wallclock time in
      microseconds and disabling the synchronization of random numbers
      between tasks to improve performance.

--------------------------------------------------------------------------------
   1.  RESOURCE   USE:
--------------------------------------------------------------------------------

 getting new box info from bottom of inpcrd
 NATOM  =    2121 NTYPES =       6 NBONH =    2117 MBONA  =       2
 NTHETH =      14 MTHETA =       0 NPHIH =       6 MPHIA  =       0
 NHPARM =       0 NPARM  =       0 NNB   =    2844 NRES   =     705
 NBONA  =       2 NTHETA =       0 NPHIA =       0 NUMBND =       5
 NUMANG =       3 NPTRA  =       1 NATYP =       6 NPHB   =       1
 IFBOX  =       1 NMXRS  =       6 IFCAP =       0 NEXTRA =       0
 NCOPY  =       0

     BOX TYPE: RECTILINEAR

--------------------------------------------------------------------------------
   2.  CONTROL  DATA  FOR  THE  RUN
--------------------------------------------------------------------------------

L0

General flags:
     imin    =       0, nmropt  =       0

Nature and format of input:
     ntx     =       5, irest   =       1, ntrx    =       1

Nature and format of output:
     ntxo    =       1, ntpr    =   10000, ntrx    =       1, ntwr    =   50000
     iwrap   =       1, ntwx    =   10000, ntwv    =       0, ntwe    =   10000
     ioutfm  =       1, ntwprt  =       0, idecomp =       0, rbornstat=      0

Potential function:
     ntf     =       1, ntb     =       2, igb     =       0, nsnb    =      25
     ipol    =       0, gbsa    =       0, iesp    =       0
     dielc   =   1.00000, cut     =   8.00000, intdiel =   1.00000

Frozen or restrained atoms:
     ibelly  =       0, ntr     =       0

Molecular dynamics:
     nstlim  =    500000, nscm    =      1000, nrespa  =         1
     t       =   0.00000, dt      =   0.00100, vlimit  =  20.00000

Langevin dynamics temperature regulation:
     ig      =  785434
     temp0   = 298.00000, tempi   =   0.00000, gamma_ln=   2.00000

Pressure regulation:
     ntp     =       1
     pres0   =   1.01325, comp    =  44.60000, taup    =   2.00000

SHAKE:
     ntc     =       2, jfastw  =       0
     tol     =   0.00001

Free energy options:
     icfe    =       1, ifsc    =       0, klambda =       1
     clambda =  0.0000, scalpha =  0.5000, scbeta  = 12.0000
     sceeorder =       2
     dynlmb =  0.0000 logdvdl =       1

FEP MBAR options:
     ifmbar  =       1,  bar_intervall =     1000
     bar_l_min =0.0000,  bar_l_max =1.0000,  bar_l_incr =0.1000

Ewald parameters:
     verbose =       0, ew_type =       0, nbflag  =       1, use_pme =       1
     vdwmeth =       1, eedmeth =       1, netfrc  =       1
     Box X =   28.135   Box Y =   27.755   Box Z =   27.374
     Alpha =   90.000   Beta  =   90.000   Gamma =   90.000
     NFFT1 =   30       NFFT2 =   30       NFFT3 =   30
     Cutoff=    8.000   Tol   =0.100E-04
     Ewald Coefficient =  0.34864
     Interpolation order =    4

     TI Mask 1 :1; matches      6 atoms
     TI Mask 2 :2; matches      6 atoms
     TI region 1:    2115 atoms
     TI region 2:    2115 atoms

    MBAR - lambda values considered:
      11 total:  0.0000 0.1000 0.2000 0.3000 0.4000 0.5000 0.6000 0.7000 0.8000 0.9000 1.0000
    Extra energies will be computed    500 times.
     Checking for mismatched coordinates.
 Noshake mask :1,2; matches      12 atoms.

--------------------------------------------------------------------------------
   3.  ATOMIC COORDINATES AND VELOCITIES
--------------------------------------------------------------------------------

L0
 begin time read from input coords =   500.000 ps

 Number of triangulated 3-point waters found:      703
   Removing shake constraints from O2    L0    1 -- H6    L0    1
   Removing shake constraints from C1    L0    1 -- H3    L0    1
   Removing shake constraints from C1    L0    1 -- H4    L0    1
   Removing shake constraints from C1    L0    1 -- H5    L0    1
   Removing shake constraints from O2    INT   2 -- H6    INT   2
   Removing shake constraints from C1    INT   2 -- H3    INT   2
   Removing shake constraints from C1    INT   2 -- H4    INT   2
   Removing shake constraints from C1    INT   2 -- H5    INT   2
 Number of shake restraints removed:        8

     Sum of charges for TI region  1 =   0.00000000
     Forcing neutrality...

     Sum of charges for TI region  2 =   0.00000000
     Forcing neutrality...

--------------------------------------------------------------------------------
   4.  RESULTS
 NSTEP =    10000   TIME(PS) =     510.000  TEMP(K) =   289.25  PRESS =   408.0
 Etot   =     -5494.7747  EKtot   =      1218.5685  EPtot      =     -6713.3431
 BOND   =         1.5757  ANGLE   =         1.5742  DIHED      =         0.3587
 1-4 NB =         0.0000  1-4 EEL =         3.7410  VDWAALS    =      1041.5448
 EELEC  =     -7762.1375  EHBOND  =         0.0000  RESTRAINT  =         0.0000
 EKCMT  =       613.5428  VIRIAL  =       424.6738  VOLUME     =     21440.7429
                                                    Density    =         0.9834
 DV/DL  =         8.5183
 Ewald error estimate:   0.1669E-03
 ------------------------------------------------------------------------------

      A V E R A G E S   O V E R   50000 S T E P S

 NSTEP =    50000   TIME(PS) =     550.000  TEMP(K) =   298.70  PRESS =    -1.9
 Etot   =     -5472.1430  EKtot   =      1258.3738  EPtot      =     -6730.5168
 BOND   =         1.8331  ANGLE   =         1.9982  DIHED      =         0.3300
 1-4 NB =         0.0000  1-4 EEL =         3.8146  VDWAALS    =      1009.6510
 EELEC  =     -7748.1437  EHBOND  =         0.0000  RESTRAINT  =         0.0000
 EKCMT  =       626.6573  VIRIAL  =       627.5164  VOLUME     =     21412.8201
                                                    Density    =         0.9847
 DV/DL  =        10.4629
 Ewald error estimate:   0.2104E-03
 ------------------------------------------------------------------------------

      R M S  F L U C T U A T I O N S

 NSTEP =    50000   TIME(PS) =     550.000  TEMP(K) =     6.28  PRESS =   383.1
 Etot   =        44.6691  EKtot   =        26.4579  EPtot      =        36.0700
 BOND   =         1.1808  ANGLE   =         1.1574  DIHED      =         0.3112
 1-4 NB =         0.0000  1-4 EEL =         0.1161  VDWAALS    =        37.8311
 EELEC  =        58.6472  EHBOND  =         0.0000  RESTRAINT  =         0.0000
 EKCMT  =        17.7565  VIRIAL  =       176.3814  VOLUME     =        76.2563
                                                    Density    =         0.0035
 DV/DL  =         4.4534
 Ewald error estimate:   0.1554E-03
 ------------------------------------------------------------------------------

      A V E R A G E S   O V E R   50000 S T E P S

 NSTEP =    50000   TIME(PS) =     550.000  TEMP(K) =   298.70  PRESS =    -1.9
 Etot   =     -5472.1430  EKtot   =      1258.3738  EPtot      =     -6730.5168
 BOND   =         1.8331  ANGLE   =         1.9982  DIHED      =         0.3300
 1-4 NB =         0.0000  1-4 EEL =         3.8146  VDWAALS    =      1009.6510
 EELEC  =     -7748.1437  EHBOND  =         0.0000  RESTRAINT  =         0.0000
 EKCMT  =       626.6573  VIRIAL  =       627.5164  VOLUME     =     21412.8201
                                                    Density    =         0.9847
 DV/DL  =        10.4629
 Ewald error estimate:   0.2104E-03
 ------------------------------------------------------------------------------

      R M S  F L U C T U A T I O N S

 NSTEP =    50000   TIME(PS) =     550.000  TEMP(K) =     6.28  PRESS =   383.1
 Etot   =        44.6691  EKtot   =        26.4579  EPtot      =        36.0700
 BOND   =         1.1808  ANGLE   =         1.1574  DIHED      =         0.3112
 1-4 NB =         0.0000  1-4 EEL =         0.1161  VDWAALS    =        37.8311
 EELEC  =        58.6472  EHBOND  =         0.0000  RESTRAINT  =         0.0000
 EKCMT  =        17.7565  VIRIAL  =       176.3814  VOLUME     =        76.2563
                                                    Density    =         0.0035
 DV/DL  =         4.4534
 Ewald error estimate:   0.1554E-03
 ------------------------------------------------------------------------------

      DV/DL, AVERAGES OVER   50000 STEPS

 NSTEP =    50000   TIME(PS) =     550.000  TEMP(K) =     6.28  PRESS =     0.0
 Etot   =         0.0000  EKtot   =         0.0000  EPtot      =        10.4629
 BOND   =         0.0000  ANGLE   =         0.0000  DIHED      =         0.0000
 1-4 NB =         0.0000  1-4 EEL =        -3.8146  VDWAALS    =         0.0000
 EELEC  =        14.2774  EHBOND  =         0.0000  RESTRAINT  =         0.0000
 EKCMT  =         0.0000  VIRIAL  =         0.0000  VOLUME     =         0.0000
                                                    Density    =         0.0000
 DV/DL  =        10.4629
 Ewald error estimate:   0.0000E+00
 ------------------------------------------------------------------------------

      A V E R A G E S   O V E R   50000 S T E P S

 NSTEP =   100000   TIME(PS) =     600.000  TEMP(K) =   297.48  PRESS =     5.2
 Etot   =     -5491.3583  EKtot   =      1253.2212  EPtot      =     -6744.5796
 BOND   =         1.8834  ANGLE   =         1.7759  DIHED      =         0.2966
 1-4 NB =         0.0000  1-4 EEL =         3.8174  VDWAALS    =      1013.8790
 EELEC  =     -7766.2319  EHBOND  =         0.0000  RESTRAINT  =         0.0000
 EKCMT  =       626.0930  VIRIAL  =       623.6972  VOLUME     =     21385.2697
                                                    Density    =         0.9860
 DV/DL  =        11.0943
 Ewald error estimate:   0.2065E-03
 ------------------------------------------------------------------------------

      R M S  F L U C T U A T I O N S

 NSTEP =   100000   TIME(PS) =     600.000  TEMP(K) =     6.26  PRESS =   379.5
 Etot   =        44.6176  EKtot   =        26.3533  EPtot      =        37.5983
 BOND   =         1.1663  ANGLE   =         1.0080  DIHED      =         0.2990
 1-4 NB =         0.0000  1-4 EEL =         0.1133  VDWAALS    =        37.0983
 EELEC  =        58.8013  EHBOND  =         0.0000  RESTRAINT  =         0.0000
 EKCMT  =        18.3547  VIRIAL  =       174.5822  VOLUME     =        70.1767
                                                    Density    =         0.0032
 DV/DL  =         3.9830
 Ewald error estimate:   0.1555E-03
 ------------------------------------------------------------------------------

      A V E R A G E S   O V E R   50000 S T E P S

 NSTEP =   100000   TIME(PS) =     600.000  TEMP(K) =   297.48  PRESS =     5.2
 Etot   =     -5491.3583  EKtot   =      1253.2212  EPtot      =     -6744.5796
 BOND   =         1.8834  ANGLE   =         1.7759  DIHED      =         0.2966
 1-4 NB =         0.0000  1-4 EEL =         3.8174  VDWAALS    =      1013.8790
 EELEC  =     -7766.2319  EHBOND  =         0.0000  RESTRAINT  =         0.0000
 EKCMT  =       626.0930  VIRIAL  =       623.6972  VOLUME     =     21385.2697
                                                    Density    =         0.9860
 DV/DL  =        11.0943
 Ewald error estimate:   0.2065E-03
 ------------------------------------------------------------------------------

      R M S  F L U C T U A T I O N S

 NSTEP =   100000   TIME(PS) =     600.000  TEMP(K) =     6.26  PRESS =   379.5
 Etot   =        44.6176  EKtot   =        26.3533  EPtot      =        37.5983
 BOND   =         1.1663  ANGLE   =         1.0080  DIHED      =         0.2990
 1-4 NB =         0.0000  1-4 EEL =         0.1133  VDWAALS    =        37.0983
 EELEC  =        58.8013  EHBOND  =         0.0000  RESTRAINT  =         0.0000
 EKCMT  =        18.3547  VIRIAL  =       174.5822  VOLUME     =        70.1767
                                                    Density    =         0.0032
 DV/DL  =         3.9830
 Ewald error estimate:   0.1555E-03
 ------------------------------------------------------------------------------

      DV/DL, AVERAGES OVER   50000 STEPS

 NSTEP =   100000   TIME(PS) =     600.000  TEMP(K) =     6.26  PRESS =     0.0
 Etot   =         0.0000  EKtot   =         0.0000  EPtot      =        11.0943
 BOND   =         0.0000  ANGLE   =         0.0000  DIHED      =         0.0000
 1-4 NB =         0.0000  1-4 EEL =        -3.8174  VDWAALS    =         0.0000
 EELEC  =        14.9117  EHBOND  =         0.0000  RESTRAINT  =         0.0000
 EKCMT  =         0.0000  VIRIAL  =         0.0000  VOLUME     =         0.0000
                                                    Density    =         0.0000
 DV/DL  =        11.0943
 Ewald error estimate:   0.0000E+00
 ------------------------------------------------------------------------------

      A V E R A G E S   O V E R   50000 S T E P S

 NSTEP =   500000   TIME(PS) =    1000.000  TEMP(K) =   298.33  PRESS =    11.7
 Etot   =     -5469.8414  EKtot   =      1256.8129  EPtot      =     -6726.6543
 BOND   =         1.7925  ANGLE   =         1.8870  DIHED      =         0.2970
 1-4 NB =         0.0000  1-4 EEL =         3.8172  VDWAALS    =      1011.0759
 EELEC  =     -7745.5239  EHBOND  =         0.0000  RESTRAINT  =         0.0000
 EKCMT  =       627.8623  VIRIAL  =       622.4576  VOLUME     =     21468.4387
                                                    Density    =         0.9821
 DV/DL  =        11.1452
 Ewald error estimate:   0.2049E-03
 ------------------------------------------------------------------------------

      R M S  F L U C T U A T I O N S

 NSTEP =   500000   TIME(PS) =    1000.000  TEMP(K) =     6.55  PRESS =   395.8
 Etot   =        53.6834  EKtot   =        27.5930  EPtot      =        43.4085
 BOND   =         1.1469  ANGLE   =         1.0641  DIHED      =         0.2952
 1-4 NB =         0.0000  1-4 EEL =         0.1122  VDWAALS    =        39.8056
 EELEC  =        67.2067  EHBOND  =         0.0000  RESTRAINT  =         0.0000
 EKCMT  =        19.7681  VIRIAL  =       184.6274  VOLUME     =        99.8422
                                                    Density    =         0.0046
 DV/DL  =         3.8904
 Ewald error estimate:   0.1538E-03
 ------------------------------------------------------------------------------

      A V E R A G E S   O V E R   50000 S T E P S

 NSTEP =   500000   TIME(PS) =    1000.000  TEMP(K) =   298.33  PRESS =    11.7
 Etot   =     -5469.8414  EKtot   =      1256.8129  EPtot      =     -6726.6543
 BOND   =         1.7925  ANGLE   =         1.8870  DIHED      =         0.2970
 1-4 NB =         0.0000  1-4 EEL =         3.8172  VDWAALS    =      1011.0759
 EELEC  =     -7745.5239  EHBOND  =         0.0000  RESTRAINT  =         0.0000
 EKCMT  =       627.8623  VIRIAL  =       622.4576  VOLUME     =     21468.4387
                                                    Density    =         0.9821
 DV/DL  =        11.1452
 Ewald error estimate:   0.2049E-03
 ------------------------------------------------------------------------------

      R M S  F L U C T U A T I O N S

 NSTEP =   500000   TIME(PS) =    1000.000  TEMP(K) =     6.55  PRESS =   395.8
 Etot   =        53.6834  EKtot   =        27.5930  EPtot      =        43.4085
 BOND   =         1.1469  ANGLE   =         1.0641  DIHED      =         0.2952
 1-4 NB =         0.0000  1-4 EEL =         0.1122  VDWAALS    =        39.8056
 EELEC  =        67.2067  EHBOND  =         0.0000  RESTRAINT  =         0.0000
 EKCMT  =        19.7681  VIRIAL  =       184.6274  VOLUME     =        99.8422
                                                    Density    =         0.0046
 DV/DL  =         3.8904
 Ewald error estimate:   0.1538E-03
 ------------------------------------------------------------------------------

      DV/DL, AVERAGES OVER   50000 STEPS

 NSTEP =   500000   TIME(PS) =    1000.000  TEMP(K) =     6.55  PRESS =     0.0
 Etot   =         0.0000  EKtot   =         0.0000  EPtot      =        11.1452
 BOND   =         0.0000  ANGLE   =         0.0000  DIHED      =         0.0000
 1-4 NB =         0.0000  1-4 EEL =        -3.8172  VDWAALS    =         0.0000
 EELEC  =        14.9625  EHBOND  =         0.0000  RESTRAINT  =         0.0000
 EKCMT  =         0.0000  VIRIAL  =         0.0000  VOLUME     =         0.0000
                                                    Density    =         0.0000
 DV/DL  =        11.1452
 Ewald error estimate:   0.0000E+00
 ------------------------------------------------------------------------------

      A V E R A G E S   O V E R  500000 S T E P S

 NSTEP =   500000   TIME(PS) =    1000.000  TEMP(K) =   297.99  PRESS =     1.9
 Etot   =     -5479.3957  EKtot   =      1255.4027  EPtot      =     -6734.7983
 BOND   =         1.8238  ANGLE   =         1.8793  DIHED      =         0.3034
 1-4 NB =         0.0000  1-4 EEL =         3.8166  VDWAALS    =      1010.3070
 EELEC  =     -7752.9284  EHBOND  =         0.0000  RESTRAINT  =         0.0000
 EKCMT  =       626.6975  VIRIAL  =       625.8244  VOLUME     =     21404.5619
                                                    Density    =         0.9851
 DV/DL  =        11.0706
 Ewald error estimate:   0.2058E-03
 ------------------------------------------------------------------------------

      R M S  F L U C T U A T I O N S

 NSTEP =   500000   TIME(PS) =    1000.000  TEMP(K) =     6.39  PRESS =   386.1
 Etot   =        46.6459  EKtot   =        26.9397  EPtot      =        38.1504
 BOND   =         1.1382  ANGLE   =         1.0796  DIHED      =         0.3037
 1-4 NB =         0.0000  1-4 EEL =         0.1156  VDWAALS    =        37.7696
 EELEC  =        59.9327  EHBOND  =         0.0000  RESTRAINT  =         0.0000
 EKCMT  =        18.9922  VIRIAL  =       178.1737  VOLUME     =        89.2465
                                                    Density    =         0.0041
 DV/DL  =         4.0988
 Ewald error estimate:   0.1549E-03
 ------------------------------------------------------------------------------

      A V E R A G E S   O V E R  500000 S T E P S

 NSTEP =   500000   TIME(PS) =    1000.000  TEMP(K) =   297.99  PRESS =     1.9
 Etot   =     -5479.3957  EKtot   =      1255.4027  EPtot      =     -6734.7983
 BOND   =         1.8238  ANGLE   =         1.8793  DIHED      =         0.3034
 1-4 NB =         0.0000  1-4 EEL =         3.8166  VDWAALS    =      1010.3070
 EELEC  =     -7752.9284  EHBOND  =         0.0000  RESTRAINT  =         0.0000
 EKCMT  =       626.6975  VIRIAL  =       625.8244  VOLUME     =     21404.5619
                                                    Density    =         0.9851
 DV/DL  =        11.0706
 Ewald error estimate:   0.2058E-03
 ------------------------------------------------------------------------------

      R M S  F L U C T U A T I O N S

 NSTEP =   500000   TIME(PS) =    1000.000  TEMP(K) =     6.39  PRESS =   386.1
 Etot   =        46.6459  EKtot   =        26.9397  EPtot      =        38.1504
 BOND   =         1.1382  ANGLE   =         1.0796  DIHED      =         0.3037
 1-4 NB =         0.0000  1-4 EEL =         0.1156  VDWAALS    =        37.7696
 EELEC  =        59.9327  EHBOND  =         0.0000  RESTRAINT  =         0.0000
 EKCMT  =        18.9922  VIRIAL  =       178.1737  VOLUME     =        89.2465
                                                    Density    =         0.0041
 DV/DL  =         4.0988
 Ewald error estimate:   0.1549E-03
 ------------------------------------------------------------------------------

      DV/DL, AVERAGES OVER  500000 STEPS

 NSTEP =   500000   TIME(PS) =    1000.000  TEMP(K) =     6.39  PRESS =     0.0
 Etot   =         0.0000  EKtot   =         0.0000  EPtot      =        11.0706
 BOND   =         0.0000  ANGLE   =         0.0000  DIHED      =         0.0000
 1-4 NB =         0.0000  1-4 EEL =        -3.8166  VDWAALS    =         0.0000
 EELEC  =        14.8872  EHBOND  =         0.0000  RESTRAINT  =         0.0000
 EKCMT  =         0.0000  VIRIAL  =         0.0000  VOLUME     =         0.0000
                                                    Density    =         0.0000
 DV/DL  =        11.0706
 Ewald error estimate:   0.0000E+00
 ------------------------------------------------------------------------------
