-------------------------------------------------------
          Amber 14 SANDER                              2014
          -------------------------------------------------------

  [-O]verwriting output

File Assignments:

 Here is the input file:

MD simulation
 &cntrl
   imin = 0, nstlim = 500000, irest = 1, ntx = 5, dt = 0.001,
   ntt = 3, temp0 = 298.0, gamma_ln = 2.0, ig = -1,
   ntp = 1, pres0 = 1.01325, taup = 2.0,
   ntb = 2,
   ioutfm = 1, iwrap = 1,
   ntwe = 10000, ntwx = 10000, ntpr = 10000, ntwr = 50000, ntave = 50000,

   ntc = 2, ntf = 1,
   noshakemask = ':1,2',

   icfe = 1, ifsc = 0, clambda = 0.0, scalpha = 0.5, scbeta = 12.0,
   logdvdl = 1,
   ifmbar = 1, bar_intervall = 1000, bar_l_min = 0.0, bar_l_max = 1.0,
   bar_l_incr = 0.1,
   timask1 = ':1', timask2 = ':2'
 /
 &ewald
 /

Note: ig = -1. Setting random seed to   805949 based on wallclock time in
      microseconds and disabling the synchronization of random numbers
      between tasks to improve performance.

--------------------------------------------------------------------------------
   1.  RESOURCE   USE:
--------------------------------------------------------------------------------

 getting new box info from bottom of inpcrd
 NATOM  =    2121 NTYPES =       6 NBONH =    2117 MBONA  =       2
 NTHETH =      14 MTHETA =       0 NPHIH =       6 MPHIA  =       0
 NHPARM =       0 NPARM  =       0 NNB   =    2844 NRES   =     705
 NBONA  =       2 NTHETA =       0 NPHIA =       0 NUMBND =       5
 NUMANG =       3 NPTRA  =       1 NATYP =       6 NPHB   =       1
 IFBOX  =       1 NMXRS  =       6 IFCAP =       0 NEXTRA =       0
 NCOPY  =       0

     BOX TYPE: RECTILINEAR

--------------------------------------------------------------------------------
   2.  CONTROL  DATA  FOR  THE  RUN
--------------------------------------------------------------------------------

L0

General flags:
     imin    =       0, nmropt  =       0

Nature and format of input:
     ntx     =       5, irest   =       1, ntrx    =       1

Nature and format of output:
     ntxo    =       1, ntpr    =   10000, ntrx    =       1, ntwr    =   50000
     iwrap   =       1, ntwx    =   10000, ntwv    =       0, ntwe    =   10000
     ioutfm  =       1, ntwprt  =       0, idecomp =       0, rbornstat=      0

Potential function:
     ntf     =       1, ntb     =       2, igb     =       0, nsnb    =      25
     ipol    =       0, gbsa    =       0, iesp    =       0
     dielc   =   1.00000, cut     =   8.00000, intdiel =   1.00000

Frozen or restrained atoms:
     ibelly  =       0, ntr     =       0

Molecular dynamics:
     nstlim  =    500000, nscm    =      1000, nrespa  =         1
     t       =   0.00000, dt      =   0.00100, vlimit  =  20.00000

Langevin dynamics temperature regulation:
     ig      =  805949
     temp0   = 298.00000, tempi   =   0.00000, gamma_ln=   2.00000

Pressure regulation:
     ntp     =       1
     pres0   =   1.01325, comp    =  44.60000, taup    =   2.00000

SHAKE:
     ntc     =       2, jfastw  =       0
     tol     =   0.00001

Free energy options:
     icfe    =       1, ifsc    =       0, klambda =       1
     clambda =  0.0000, scalpha =  0.5000, scbeta  = 12.0000
     sceeorder =       2
     dynlmb =  0.0000 logdvdl =       1

FEP MBAR options:
     ifmbar  =       1,  bar_intervall =     1000
     bar_l_min =0.0000,  bar_l_max =1.0000,  bar_l_incr =0.1000

Ewald parameters:
     verbose =       0, ew_type =       0, nbflag  =       1, use_pme =       1
     vdwmeth =       1, eedmeth =       1, netfrc  =       1
     Box X =   28.226   Box Y =   27.845   Box Z =   27.463
     Alpha =   90.000   Beta  =   90.000   Gamma =   90.000
     NFFT1 =   30       NFFT2 =   30       NFFT3 =   30
     Cutoff=    8.000   Tol   =0.100E-04
     Ewald Coefficient =  0.34864
     Interpolation order =    4

     TI Mask 1 :1; matches      6 atoms
     TI Mask 2 :2; matches      6 atoms
     TI region 1:    2115 atoms
     TI region 2:    2115 atoms

    MBAR - lambda values considered:
      11 total:  0.0000 0.1000 0.2000 0.3000 0.4000 0.5000 0.6000 0.7000 0.8000 0.9000 1.0000
    Extra energies will be computed    500 times.
     Checking for mismatched coordinates.
 Noshake mask :1,2; matches      12 atoms.

--------------------------------------------------------------------------------
   3.  ATOMIC COORDINATES AND VELOCITIES
--------------------------------------------------------------------------------

L0
 begin time read from input coords =  1000.000 ps

 Number of triangulated 3-point waters found:      703
   Removing shake constraints from O2    L0    1 -- H6    L0    1
   Removing shake constraints from C1    L0    1 -- H3    L0    1
   Removing shake constraints from C1    L0    1 -- H4    L0    1
   Removing shake constraints from C1    L0    1 -- H5    L0    1
   Removing shake constraints from O2    INT   2 -- H6    INT   2
   Removing shake constraints from C1    INT   2 -- H3    INT   2
   Removing shake constraints from C1    INT   2 -- H4    INT   2
   Removing shake constraints from C1    INT   2 -- H5    INT   2
 Number of shake restraints removed:        8

     Sum of charges for TI region  1 =   0.00000000
     Forcing neutrality...

     Sum of charges for TI region  2 =   0.00000000
     Forcing neutrality...

--------------------------------------------------------------------------------
   4.  RESULTS
 NSTEP =    10000   TIME(PS) =    1010.000  TEMP(K) =   293.98  PRESS =   276.3
 Etot   =     -5511.1095  EKtot   =      1238.5057  EPtot      =     -6749.6152
 BOND   =         1.7856  ANGLE   =         0.2686  DIHED      =         0.4066
 1-4 NB =         0.0000  1-4 EEL =         3.7972  VDWAALS    =      1040.2587
 EELEC  =     -7796.1319  EHBOND  =         0.0000  RESTRAINT  =         0.0000
 EKCMT  =       612.1202  VIRIAL  =       484.2452  VOLUME     =     21434.7976
                                                    Density    =         0.9837
 DV/DL  =         1.3517
 Ewald error estimate:   0.1212E-03
 ------------------------------------------------------------------------------

      A V E R A G E S   O V E R   50000 S T E P S

 NSTEP =    50000   TIME(PS) =    1050.000  TEMP(K) =   298.53  PRESS =    -9.8
 Etot   =     -5472.2940  EKtot   =      1257.6434  EPtot      =     -6729.9373
 BOND   =         1.8901  ANGLE   =         1.8477  DIHED      =         0.3035
 1-4 NB =         0.0000  1-4 EEL =         3.8206  VDWAALS    =      1008.2072
 EELEC  =     -7746.0065  EHBOND  =         0.0000  RESTRAINT  =         0.0000
 EKCMT  =       627.8296  VIRIAL  =       632.3744  VOLUME     =     21419.5322
                                                    Density    =         0.9844
 DV/DL  =        11.1064
 Ewald error estimate:   0.2068E-03
 ------------------------------------------------------------------------------

      R M S  F L U C T U A T I O N S

 NSTEP =    50000   TIME(PS) =    1050.000  TEMP(K) =     6.60  PRESS =   388.7
 Etot   =        50.4037  EKtot   =        27.8254  EPtot      =        39.4059
 BOND   =         1.2193  ANGLE   =         1.1185  DIHED      =         0.3026
 1-4 NB =         0.0000  1-4 EEL =         0.1161  VDWAALS    =        38.4703
 EELEC  =        62.4841  EHBOND  =         0.0000  RESTRAINT  =         0.0000
 EKCMT  =        18.8820  VIRIAL  =       179.0604  VOLUME     =        75.8686
                                                    Density    =         0.0035
 DV/DL  =         3.8528
 Ewald error estimate:   0.1572E-03
 ------------------------------------------------------------------------------

      A V E R A G E S   O V E R   50000 S T E P S

 NSTEP =    50000   TIME(PS) =    1050.000  TEMP(K) =   298.53  PRESS =    -9.8
 Etot   =     -5472.2940  EKtot   =      1257.6434  EPtot      =     -6729.9373
 BOND   =         1.8901  ANGLE   =         1.8477  DIHED      =         0.3035
 1-4 NB =         0.0000  1-4 EEL =         3.8206  VDWAALS    =      1008.2072
 EELEC  =     -7746.0065  EHBOND  =         0.0000  RESTRAINT  =         0.0000
 EKCMT  =       627.8296  VIRIAL  =       632.3744  VOLUME     =     21419.5322
                                                    Density    =         0.9844
 DV/DL  =        11.1064
 Ewald error estimate:   0.2068E-03
 ------------------------------------------------------------------------------

      R M S  F L U C T U A T I O N S

 NSTEP =    50000   TIME(PS) =    1050.000  TEMP(K) =     6.60  PRESS =   388.7
 Etot   =        50.4037  EKtot   =        27.8254  EPtot      =        39.4059
 BOND   =         1.2193  ANGLE   =         1.1185  DIHED      =         0.3026
 1-4 NB =         0.0000  1-4 EEL =         0.1161  VDWAALS    =        38.4703
 EELEC  =        62.4841  EHBOND  =         0.0000  RESTRAINT  =         0.0000
 EKCMT  =        18.8820  VIRIAL  =       179.0604  VOLUME     =        75.8686
                                                    Density    =         0.0035
 DV/DL  =         3.8528
 Ewald error estimate:   0.1572E-03
 ------------------------------------------------------------------------------

      DV/DL, AVERAGES OVER   50000 STEPS

 NSTEP =    50000   TIME(PS) =    1050.000  TEMP(K) =     6.60  PRESS =     0.0
 Etot   =         0.0000  EKtot   =         0.0000  EPtot      =        11.1064
 BOND   =         0.0000  ANGLE   =         0.0000  DIHED      =         0.0000
 1-4 NB =         0.0000  1-4 EEL =        -3.8206  VDWAALS    =         0.0000
 EELEC  =        14.9270  EHBOND  =         0.0000  RESTRAINT  =         0.0000
 EKCMT  =         0.0000  VIRIAL  =         0.0000  VOLUME     =         0.0000
                                                    Density    =         0.0000
 DV/DL  =        11.1064
 Ewald error estimate:   0.0000E+00
 ------------------------------------------------------------------------------

      A V E R A G E S   O V E R   50000 S T E P S

 NSTEP =   100000   TIME(PS) =    1100.000  TEMP(K) =   297.57  PRESS =     3.4
 Etot   =     -5479.2221  EKtot   =      1253.5967  EPtot      =     -6732.8188
 BOND   =         1.9480  ANGLE   =         1.9356  DIHED      =         0.3048
 1-4 NB =         0.0000  1-4 EEL =         3.8168  VDWAALS    =      1009.2717
 EELEC  =     -7750.0957  EHBOND  =         0.0000  RESTRAINT  =         0.0000
 EKCMT  =       625.7943  VIRIAL  =       624.2380  VOLUME     =     21391.8252
                                                    Density    =         0.9857
 DV/DL  =        11.4112
 Ewald error estimate:   0.2026E-03
 ------------------------------------------------------------------------------

      R M S  F L U C T U A T I O N S

 NSTEP =   100000   TIME(PS) =    1100.000  TEMP(K) =     6.40  PRESS =   387.8
 Etot   =        44.9808  EKtot   =        26.9680  EPtot      =        36.7909
 BOND   =         1.1855  ANGLE   =         1.1602  DIHED      =         0.3026
 1-4 NB =         0.0000  1-4 EEL =         0.1216  VDWAALS    =        38.0387
 EELEC  =        59.0069  EHBOND  =         0.0000  RESTRAINT  =         0.0000
 EKCMT  =        18.6683  VIRIAL  =       178.9021  VOLUME     =        59.4301
                                                    Density    =         0.0027
 DV/DL  =         3.8307
 Ewald error estimate:   0.1506E-03
 ------------------------------------------------------------------------------

      A V E R A G E S   O V E R   50000 S T E P S

 NSTEP =   100000   TIME(PS) =    1100.000  TEMP(K) =   297.57  PRESS =     3.4
 Etot   =     -5479.2221  EKtot   =      1253.5967  EPtot      =     -6732.8188
 BOND   =         1.9480  ANGLE   =         1.9356  DIHED      =         0.3048
 1-4 NB =         0.0000  1-4 EEL =         3.8168  VDWAALS    =      1009.2717
 EELEC  =     -7750.0957  EHBOND  =         0.0000  RESTRAINT  =         0.0000
 EKCMT  =       625.7943  VIRIAL  =       624.2380  VOLUME     =     21391.8252
                                                    Density    =         0.9857
 DV/DL  =        11.4112
 Ewald error estimate:   0.2026E-03
 ------------------------------------------------------------------------------

      R M S  F L U C T U A T I O N S

 NSTEP =   100000   TIME(PS) =    1100.000  TEMP(K) =     6.40  PRESS =   387.8
 Etot   =        44.9808  EKtot   =        26.9680  EPtot      =        36.7909
 BOND   =         1.1855  ANGLE   =         1.1602  DIHED      =         0.3026
 1-4 NB =         0.0000  1-4 EEL =         0.1216  VDWAALS    =        38.0387
 EELEC  =        59.0069  EHBOND  =         0.0000  RESTRAINT  =         0.0000
 EKCMT  =        18.6683  VIRIAL  =       178.9021  VOLUME     =        59.4301
                                                    Density    =         0.0027
 DV/DL  =         3.8307
 Ewald error estimate:   0.1506E-03
 ------------------------------------------------------------------------------

      DV/DL, AVERAGES OVER   50000 STEPS

 NSTEP =   100000   TIME(PS) =    1100.000  TEMP(K) =     6.40  PRESS =     0.0
 Etot   =         0.0000  EKtot   =         0.0000  EPtot      =        11.4112
 BOND   =         0.0000  ANGLE   =         0.0000  DIHED      =         0.0000
 1-4 NB =         0.0000  1-4 EEL =        -3.8168  VDWAALS    =         0.0000
 EELEC  =        15.2280  EHBOND  =         0.0000  RESTRAINT  =         0.0000
 EKCMT  =         0.0000  VIRIAL  =         0.0000  VOLUME     =         0.0000
                                                    Density    =         0.0000
 DV/DL  =        11.4112
 Ewald error estimate:   0.0000E+00
 ------------------------------------------------------------------------------

      A V E R A G E S   O V E R   50000 S T E P S

 NSTEP =   500000   TIME(PS) =    1500.000  TEMP(K) =   298.02  PRESS =    -0.5
 Etot   =     -5479.7849  EKtot   =      1255.5243  EPtot      =     -6735.3091
 BOND   =         1.7789  ANGLE   =         1.8559  DIHED      =         0.2906
 1-4 NB =         0.0000  1-4 EEL =         3.8153  VDWAALS    =      1010.0058
 EELEC  =     -7753.0556  EHBOND  =         0.0000  RESTRAINT  =         0.0000
 EKCMT  =       625.0970  VIRIAL  =       625.3403  VOLUME     =     21388.2442
                                                    Density    =         0.9858
 DV/DL  =        10.0665
 Ewald error estimate:   0.2095E-03
 ------------------------------------------------------------------------------

      R M S  F L U C T U A T I O N S

 NSTEP =   500000   TIME(PS) =    1500.000  TEMP(K) =     6.36  PRESS =   395.0
 Etot   =        42.6149  EKtot   =        26.8019  EPtot      =        35.9095
 BOND   =         1.1195  ANGLE   =         1.0658  DIHED      =         0.2980
 1-4 NB =         0.0000  1-4 EEL =         0.1129  VDWAALS    =        39.7344
 EELEC  =        61.0978  EHBOND  =         0.0000  RESTRAINT  =         0.0000
 EKCMT  =        18.9932  VIRIAL  =       182.9804  VOLUME     =        79.8908
                                                    Density    =         0.0037
 DV/DL  =         4.1094
 Ewald error estimate:   0.1565E-03
 ------------------------------------------------------------------------------

      A V E R A G E S   O V E R   50000 S T E P S

 NSTEP =   500000   TIME(PS) =    1500.000  TEMP(K) =   298.02  PRESS =    -0.5
 Etot   =     -5479.7849  EKtot   =      1255.5243  EPtot      =     -6735.3091
 BOND   =         1.7789  ANGLE   =         1.8559  DIHED      =         0.2906
 1-4 NB =         0.0000  1-4 EEL =         3.8153  VDWAALS    =      1010.0058
 EELEC  =     -7753.0556  EHBOND  =         0.0000  RESTRAINT  =         0.0000
 EKCMT  =       625.0970  VIRIAL  =       625.3403  VOLUME     =     21388.2442
                                                    Density    =         0.9858
 DV/DL  =        10.0665
 Ewald error estimate:   0.2095E-03
 ------------------------------------------------------------------------------

      R M S  F L U C T U A T I O N S

 NSTEP =   500000   TIME(PS) =    1500.000  TEMP(K) =     6.36  PRESS =   395.0
 Etot   =        42.6149  EKtot   =        26.8019  EPtot      =        35.9095
 BOND   =         1.1195  ANGLE   =         1.0658  DIHED      =         0.2980
 1-4 NB =         0.0000  1-4 EEL =         0.1129  VDWAALS    =        39.7344
 EELEC  =        61.0978  EHBOND  =         0.0000  RESTRAINT  =         0.0000
 EKCMT  =        18.9932  VIRIAL  =       182.9804  VOLUME     =        79.8908
                                                    Density    =         0.0037
 DV/DL  =         4.1094
 Ewald error estimate:   0.1565E-03
 ------------------------------------------------------------------------------

      DV/DL, AVERAGES OVER   50000 STEPS

 NSTEP =   500000   TIME(PS) =    1500.000  TEMP(K) =     6.36  PRESS =     0.0
 Etot   =         0.0000  EKtot   =         0.0000  EPtot      =        10.0665
 BOND   =         0.0000  ANGLE   =         0.0000  DIHED      =         0.0000
 1-4 NB =         0.0000  1-4 EEL =        -3.8153  VDWAALS    =         0.0000
 EELEC  =        13.8818  EHBOND  =         0.0000  RESTRAINT  =         0.0000
 EKCMT  =         0.0000  VIRIAL  =         0.0000  VOLUME     =         0.0000
                                                    Density    =         0.0000
 DV/DL  =        10.0665
 Ewald error estimate:   0.0000E+00
 ------------------------------------------------------------------------------

      A V E R A G E S   O V E R  500000 S T E P S

 NSTEP =   500000   TIME(PS) =    1500.000  TEMP(K) =   297.82  PRESS =     0.3
 Etot   =     -5482.1146  EKtot   =      1254.6545  EPtot      =     -6736.7691
 BOND   =         1.8291  ANGLE   =         1.8187  DIHED      =         0.3036
 1-4 NB =         0.0000  1-4 EEL =         3.8172  VDWAALS    =      1009.7754
 EELEC  =     -7754.3131  EHBOND  =         0.0000  RESTRAINT  =         0.0000
 EKCMT  =       625.7067  VIRIAL  =       625.5576  VOLUME     =     21385.6893
                                                    Density    =         0.9859
 DV/DL  =        10.9603
 Ewald error estimate:   0.2047E-03
 ------------------------------------------------------------------------------

      R M S  F L U C T U A T I O N S

 NSTEP =   500000   TIME(PS) =    1500.000  TEMP(K) =     6.53  PRESS =   381.7
 Etot   =        49.0331  EKtot   =        27.5254  EPtot      =        39.0396
 BOND   =         1.1632  ANGLE   =         1.0492  DIHED      =         0.3038
 1-4 NB =         0.0000  1-4 EEL =         0.1168  VDWAALS    =        37.3274
 EELEC  =        60.3599  EHBOND  =         0.0000  RESTRAINT  =         0.0000
 EKCMT  =        19.4039  VIRIAL  =       176.3763  VOLUME     =        84.3333
                                                    Density    =         0.0039
 DV/DL  =         4.0714
 Ewald error estimate:   0.1534E-03
 ------------------------------------------------------------------------------

      A V E R A G E S   O V E R  500000 S T E P S

 NSTEP =   500000   TIME(PS) =    1500.000  TEMP(K) =   297.82  PRESS =     0.3
 Etot   =     -5482.1146  EKtot   =      1254.6545  EPtot      =     -6736.7691
 BOND   =         1.8291  ANGLE   =         1.8187  DIHED      =         0.3036
 1-4 NB =         0.0000  1-4 EEL =         3.8172  VDWAALS    =      1009.7754
 EELEC  =     -7754.3131  EHBOND  =         0.0000  RESTRAINT  =         0.0000
 EKCMT  =       625.7067  VIRIAL  =       625.5576  VOLUME     =     21385.6893
                                                    Density    =         0.9859
 DV/DL  =        10.9603
 Ewald error estimate:   0.2047E-03
 ------------------------------------------------------------------------------

      R M S  F L U C T U A T I O N S

 NSTEP =   500000   TIME(PS) =    1500.000  TEMP(K) =     6.53  PRESS =   381.7
 Etot   =        49.0331  EKtot   =        27.5254  EPtot      =        39.0396
 BOND   =         1.1632  ANGLE   =         1.0492  DIHED      =         0.3038
 1-4 NB =         0.0000  1-4 EEL =         0.1168  VDWAALS    =        37.3274
 EELEC  =        60.3599  EHBOND  =         0.0000  RESTRAINT  =         0.0000
 EKCMT  =        19.4039  VIRIAL  =       176.3763  VOLUME     =        84.3333
                                                    Density    =         0.0039
 DV/DL  =         4.0714
 Ewald error estimate:   0.1534E-03
 ------------------------------------------------------------------------------

      DV/DL, AVERAGES OVER  500000 STEPS

 NSTEP =   500000   TIME(PS) =    1500.000  TEMP(K) =     6.53  PRESS =     0.0
 Etot   =         0.0000  EKtot   =         0.0000  EPtot      =        10.9603
 BOND   =         0.0000  ANGLE   =         0.0000  DIHED      =         0.0000
 1-4 NB =         0.0000  1-4 EEL =        -3.8172  VDWAALS    =         0.0000
 EELEC  =        14.7775  EHBOND  =         0.0000  RESTRAINT  =         0.0000
 EKCMT  =         0.0000  VIRIAL  =         0.0000  VOLUME     =         0.0000
                                                    Density    =         0.0000
 DV/DL  =        10.9603
 Ewald error estimate:   0.0000E+00
 ------------------------------------------------------------------------------
