-------------------------------------------------------
          Amber 14 SANDER                              2014
          -------------------------------------------------------

  [-O]verwriting output

File Assignments:

 Here is the input file:

MD simulation
 &cntrl
   imin = 0, nstlim = 500000, irest = 1, ntx = 5, dt = 0.001,
   ntt = 3, temp0 = 298.0, gamma_ln = 2.0, ig = -1,
   ntp = 1, pres0 = 1.01325, taup = 2.0,
   ntb = 2,
   ioutfm = 1, iwrap = 1,
   ntwe = 10000, ntwx = 10000, ntpr = 10000, ntwr = 50000, ntave = 50000,

   ntc = 2, ntf = 1,
   noshakemask = ':1,2',

   icfe = 1, ifsc = 0, clambda = 0.8, scalpha = 0.5, scbeta = 12.0,
   logdvdl = 1,
   ifmbar = 1, bar_intervall = 1000, bar_l_min = 0.0, bar_l_max = 1.0,
   bar_l_incr = 0.1,
   timask1 = ':1', timask2 = ':2'
 /
 &ewald
 /

Note: ig = -1. Setting random seed to   190654 based on wallclock time in
      microseconds and disabling the synchronization of random numbers
      between tasks to improve performance.

--------------------------------------------------------------------------------
   1.  RESOURCE   USE:
--------------------------------------------------------------------------------

 getting new box info from bottom of inpcrd
 NATOM  =    2121 NTYPES =       6 NBONH =    2117 MBONA  =       2
 NTHETH =      14 MTHETA =       0 NPHIH =       6 MPHIA  =       0
 NHPARM =       0 NPARM  =       0 NNB   =    2844 NRES   =     705
 NBONA  =       2 NTHETA =       0 NPHIA =       0 NUMBND =       5
 NUMANG =       3 NPTRA  =       1 NATYP =       6 NPHB   =       1
 IFBOX  =       1 NMXRS  =       6 IFCAP =       0 NEXTRA =       0
 NCOPY  =       0

     BOX TYPE: RECTILINEAR

--------------------------------------------------------------------------------
   2.  CONTROL  DATA  FOR  THE  RUN
--------------------------------------------------------------------------------

L0

General flags:
     imin    =       0, nmropt  =       0

Nature and format of input:
     ntx     =       5, irest   =       1, ntrx    =       1

Nature and format of output:
     ntxo    =       1, ntpr    =   10000, ntrx    =       1, ntwr    =   50000
     iwrap   =       1, ntwx    =   10000, ntwv    =       0, ntwe    =   10000
     ioutfm  =       1, ntwprt  =       0, idecomp =       0, rbornstat=      0

Potential function:
     ntf     =       1, ntb     =       2, igb     =       0, nsnb    =      25
     ipol    =       0, gbsa    =       0, iesp    =       0
     dielc   =   1.00000, cut     =   8.00000, intdiel =   1.00000

Frozen or restrained atoms:
     ibelly  =       0, ntr     =       0

Molecular dynamics:
     nstlim  =    500000, nscm    =      1000, nrespa  =         1
     t       =   0.00000, dt      =   0.00100, vlimit  =  20.00000

Langevin dynamics temperature regulation:
     ig      =  190654
     temp0   = 298.00000, tempi   =   0.00000, gamma_ln=   2.00000

Pressure regulation:
     ntp     =       1
     pres0   =   1.01325, comp    =  44.60000, taup    =   2.00000

SHAKE:
     ntc     =       2, jfastw  =       0
     tol     =   0.00001

Free energy options:
     icfe    =       1, ifsc    =       0, klambda =       1
     clambda =  0.8000, scalpha =  0.5000, scbeta  = 12.0000
     sceeorder =       2
     dynlmb =  0.0000 logdvdl =       1

FEP MBAR options:
     ifmbar  =       1,  bar_intervall =     1000
     bar_l_min =0.0000,  bar_l_max =1.0000,  bar_l_incr =0.1000

Ewald parameters:
     verbose =       0, ew_type =       0, nbflag  =       1, use_pme =       1
     vdwmeth =       1, eedmeth =       1, netfrc  =       1
     Box X =   28.141   Box Y =   27.761   Box Z =   27.380
     Alpha =   90.000   Beta  =   90.000   Gamma =   90.000
     NFFT1 =   30       NFFT2 =   30       NFFT3 =   30
     Cutoff=    8.000   Tol   =0.100E-04
     Ewald Coefficient =  0.34864
     Interpolation order =    4

     TI Mask 1 :1; matches      6 atoms
     TI Mask 2 :2; matches      6 atoms
     TI region 1:    2115 atoms
     TI region 2:    2115 atoms

    MBAR - lambda values considered:
      11 total:  0.0000 0.1000 0.2000 0.3000 0.4000 0.5000 0.6000 0.7000 0.8000 0.9000 1.0000
    Extra energies will be computed    500 times.
     Checking for mismatched coordinates.
 Noshake mask :1,2; matches      12 atoms.

--------------------------------------------------------------------------------
   3.  ATOMIC COORDINATES AND VELOCITIES
--------------------------------------------------------------------------------

L0
 begin time read from input coords =   500.000 ps

 Number of triangulated 3-point waters found:      703
   Removing shake constraints from O2    L0    1 -- H6    L0    1
   Removing shake constraints from C1    L0    1 -- H3    L0    1
   Removing shake constraints from C1    L0    1 -- H4    L0    1
   Removing shake constraints from C1    L0    1 -- H5    L0    1
   Removing shake constraints from O2    INT   2 -- H6    INT   2
   Removing shake constraints from C1    INT   2 -- H3    INT   2
   Removing shake constraints from C1    INT   2 -- H4    INT   2
   Removing shake constraints from C1    INT   2 -- H5    INT   2
 Number of shake restraints removed:        8

     Sum of charges for TI region  1 =   0.00000000
     Forcing neutrality...

     Sum of charges for TI region  2 =   0.00000000
     Forcing neutrality...

--------------------------------------------------------------------------------
   4.  RESULTS
 NSTEP =    10000   TIME(PS) =     510.000  TEMP(K) =   301.42  PRESS =   365.5
 Etot   =     -5424.0355  EKtot   =      1269.8334  EPtot      =     -6693.8689
 BOND   =         0.8100  ANGLE   =         2.5094  DIHED      =         0.8950
 1-4 NB =         0.0000  1-4 EEL =         0.7341  VDWAALS    =      1020.0054
 EELEC  =     -7718.8229  EHBOND  =         0.0000  RESTRAINT  =         0.0000
 EKCMT  =       629.3458  VIRIAL  =       460.8961  VOLUME     =     21344.2005
                                                    Density    =         0.9878
 DV/DL  =         0.2501
 Ewald error estimate:   0.1309E-03
 ------------------------------------------------------------------------------

      A V E R A G E S   O V E R   50000 S T E P S

 NSTEP =    50000   TIME(PS) =     550.000  TEMP(K) =   297.42  PRESS =     2.5
 Etot   =     -5480.7277  EKtot   =      1252.9987  EPtot      =     -6733.7264
 BOND   =         1.4918  ANGLE   =         1.8477  DIHED      =         0.3055
 1-4 NB =         0.0000  1-4 EEL =         0.7653  VDWAALS    =      1012.1757
 EELEC  =     -7750.3125  EHBOND  =         0.0000  RESTRAINT  =         0.0000
 EKCMT  =       624.3452  VIRIAL  =       623.2052  VOLUME     =     21447.7898
                                                    Density    =         0.9831
 DV/DL  =        -2.4603
 Ewald error estimate:   0.2088E-03
 ------------------------------------------------------------------------------

      R M S  F L U C T U A T I O N S

 NSTEP =    50000   TIME(PS) =     550.000  TEMP(K) =     6.60  PRESS =   381.7
 Etot   =        51.5844  EKtot   =        27.8149  EPtot      =        42.0328
 BOND   =         0.9371  ANGLE   =         1.0481  DIHED      =         0.3009
 1-4 NB =         0.0000  1-4 EEL =         0.0234  VDWAALS    =        37.7278
 EELEC  =        63.7518  EHBOND  =         0.0000  RESTRAINT  =         0.0000
 EKCMT  =        19.2924  VIRIAL  =       176.9983  VOLUME     =       109.6371
                                                    Density    =         0.0050
 DV/DL  =         2.1527
 Ewald error estimate:   0.1570E-03
 ------------------------------------------------------------------------------

      A V E R A G E S   O V E R   50000 S T E P S

 NSTEP =    50000   TIME(PS) =     550.000  TEMP(K) =   297.42  PRESS =     2.5
 Etot   =     -5480.7277  EKtot   =      1252.9987  EPtot      =     -6733.7264
 BOND   =         1.4918  ANGLE   =         1.8477  DIHED      =         0.3055
 1-4 NB =         0.0000  1-4 EEL =         0.7653  VDWAALS    =      1012.1757
 EELEC  =     -7750.3125  EHBOND  =         0.0000  RESTRAINT  =         0.0000
 EKCMT  =       624.3452  VIRIAL  =       623.2052  VOLUME     =     21447.7898
                                                    Density    =         0.9831
 DV/DL  =        -2.4603
 Ewald error estimate:   0.2088E-03
 ------------------------------------------------------------------------------

      R M S  F L U C T U A T I O N S

 NSTEP =    50000   TIME(PS) =     550.000  TEMP(K) =     6.60  PRESS =   381.7
 Etot   =        51.5844  EKtot   =        27.8149  EPtot      =        42.0328
 BOND   =         0.9371  ANGLE   =         1.0481  DIHED      =         0.3009
 1-4 NB =         0.0000  1-4 EEL =         0.0234  VDWAALS    =        37.7278
 EELEC  =        63.7518  EHBOND  =         0.0000  RESTRAINT  =         0.0000
 EKCMT  =        19.2924  VIRIAL  =       176.9983  VOLUME     =       109.6371
                                                    Density    =         0.0050
 DV/DL  =         2.1527
 Ewald error estimate:   0.1570E-03
 ------------------------------------------------------------------------------

      DV/DL, AVERAGES OVER   50000 STEPS

 NSTEP =    50000   TIME(PS) =     550.000  TEMP(K) =     6.60  PRESS =     0.0
 Etot   =         0.0000  EKtot   =         0.0000  EPtot      =        -2.4603
 BOND   =         0.0000  ANGLE   =         0.0000  DIHED      =         0.0000
 1-4 NB =         0.0000  1-4 EEL =        -3.8265  VDWAALS    =         0.0000
 EELEC  =         1.3662  EHBOND  =         0.0000  RESTRAINT  =         0.0000
 EKCMT  =         0.0000  VIRIAL  =         0.0000  VOLUME     =         0.0000
                                                    Density    =         0.0000
 DV/DL  =        -2.4603
 Ewald error estimate:   0.0000E+00
 ------------------------------------------------------------------------------

      A V E R A G E S   O V E R   50000 S T E P S

 NSTEP =   100000   TIME(PS) =     600.000  TEMP(K) =   297.72  PRESS =     1.7
 Etot   =     -5485.2487  EKtot   =      1254.2379  EPtot      =     -6739.4866
 BOND   =         1.5581  ANGLE   =         1.7989  DIHED      =         0.3001
 1-4 NB =         0.0000  1-4 EEL =         0.7651  VDWAALS    =      1008.2628
 EELEC  =     -7752.1717  EHBOND  =         0.0000  RESTRAINT  =         0.0000
 EKCMT  =       626.1880  VIRIAL  =       625.4140  VOLUME     =     21330.5867
                                                    Density    =         0.9885
 DV/DL  =        -2.3423
 Ewald error estimate:   0.2032E-03
 ------------------------------------------------------------------------------

      R M S  F L U C T U A T I O N S

 NSTEP =   100000   TIME(PS) =     600.000  TEMP(K) =     6.33  PRESS =   389.2
 Etot   =        42.0173  EKtot   =        26.6864  EPtot      =        34.8215
 BOND   =         0.9469  ANGLE   =         0.9557  DIHED      =         0.3020
 1-4 NB =         0.0000  1-4 EEL =         0.0240  VDWAALS    =        37.1510
 EELEC  =        55.9913  EHBOND  =         0.0000  RESTRAINT  =         0.0000
 EKCMT  =        18.7704  VIRIAL  =       179.3513  VOLUME     =        99.7960
                                                    Density    =         0.0046
 DV/DL  =         2.0758
 Ewald error estimate:   0.1540E-03
 ------------------------------------------------------------------------------

      A V E R A G E S   O V E R   50000 S T E P S

 NSTEP =   100000   TIME(PS) =     600.000  TEMP(K) =   297.72  PRESS =     1.7
 Etot   =     -5485.2487  EKtot   =      1254.2379  EPtot      =     -6739.4866
 BOND   =         1.5581  ANGLE   =         1.7989  DIHED      =         0.3001
 1-4 NB =         0.0000  1-4 EEL =         0.7651  VDWAALS    =      1008.2628
 EELEC  =     -7752.1717  EHBOND  =         0.0000  RESTRAINT  =         0.0000
 EKCMT  =       626.1880  VIRIAL  =       625.4140  VOLUME     =     21330.5867
                                                    Density    =         0.9885
 DV/DL  =        -2.3423
 Ewald error estimate:   0.2032E-03
 ------------------------------------------------------------------------------

      R M S  F L U C T U A T I O N S

 NSTEP =   100000   TIME(PS) =     600.000  TEMP(K) =     6.33  PRESS =   389.2
 Etot   =        42.0173  EKtot   =        26.6864  EPtot      =        34.8215
 BOND   =         0.9469  ANGLE   =         0.9557  DIHED      =         0.3020
 1-4 NB =         0.0000  1-4 EEL =         0.0240  VDWAALS    =        37.1510
 EELEC  =        55.9913  EHBOND  =         0.0000  RESTRAINT  =         0.0000
 EKCMT  =        18.7704  VIRIAL  =       179.3513  VOLUME     =        99.7960
                                                    Density    =         0.0046
 DV/DL  =         2.0758
 Ewald error estimate:   0.1540E-03
 ------------------------------------------------------------------------------

      DV/DL, AVERAGES OVER   50000 STEPS

 NSTEP =   100000   TIME(PS) =     600.000  TEMP(K) =     6.33  PRESS =     0.0
 Etot   =         0.0000  EKtot   =         0.0000  EPtot      =        -2.3423
 BOND   =         0.0000  ANGLE   =         0.0000  DIHED      =         0.0000
 1-4 NB =         0.0000  1-4 EEL =        -3.8257  VDWAALS    =         0.0000
 EELEC  =         1.4835  EHBOND  =         0.0000  RESTRAINT  =         0.0000
 EKCMT  =         0.0000  VIRIAL  =         0.0000  VOLUME     =         0.0000
                                                    Density    =         0.0000
 DV/DL  =        -2.3423
 Ewald error estimate:   0.0000E+00
 ------------------------------------------------------------------------------

      A V E R A G E S   O V E R   50000 S T E P S

 NSTEP =   500000   TIME(PS) =    1000.000  TEMP(K) =   297.59  PRESS =     4.0
 Etot   =     -5479.3346  EKtot   =      1253.6940  EPtot      =     -6733.0286
 BOND   =         1.6870  ANGLE   =         1.9565  DIHED      =         0.2942
 1-4 NB =         0.0000  1-4 EEL =         0.7652  VDWAALS    =      1010.1713
 EELEC  =     -7747.9028  EHBOND  =         0.0000  RESTRAINT  =         0.0000
 EKCMT  =       626.5937  VIRIAL  =       624.7514  VOLUME     =     21435.5768
                                                    Density    =         0.9836
 DV/DL  =        -2.1903
 Ewald error estimate:   0.1958E-03
 ------------------------------------------------------------------------------

      R M S  F L U C T U A T I O N S

 NSTEP =   500000   TIME(PS) =    1000.000  TEMP(K) =     6.40  PRESS =   376.5
 Etot   =        46.0051  EKtot   =        26.9747  EPtot      =        37.3487
 BOND   =         0.9829  ANGLE   =         1.0486  DIHED      =         0.2955
 1-4 NB =         0.0000  1-4 EEL =         0.0241  VDWAALS    =        38.5564
 EELEC  =        61.9889  EHBOND  =         0.0000  RESTRAINT  =         0.0000
 EKCMT  =        19.0999  VIRIAL  =       175.3039  VOLUME     =        70.7874
                                                    Density    =         0.0032
 DV/DL  =         2.1430
 Ewald error estimate:   0.1486E-03
 ------------------------------------------------------------------------------

      A V E R A G E S   O V E R   50000 S T E P S

 NSTEP =   500000   TIME(PS) =    1000.000  TEMP(K) =   297.59  PRESS =     4.0
 Etot   =     -5479.3346  EKtot   =      1253.6940  EPtot      =     -6733.0286
 BOND   =         1.6870  ANGLE   =         1.9565  DIHED      =         0.2942
 1-4 NB =         0.0000  1-4 EEL =         0.7652  VDWAALS    =      1010.1713
 EELEC  =     -7747.9028  EHBOND  =         0.0000  RESTRAINT  =         0.0000
 EKCMT  =       626.5937  VIRIAL  =       624.7514  VOLUME     =     21435.5768
                                                    Density    =         0.9836
 DV/DL  =        -2.1903
 Ewald error estimate:   0.1958E-03
 ------------------------------------------------------------------------------

      R M S  F L U C T U A T I O N S

 NSTEP =   500000   TIME(PS) =    1000.000  TEMP(K) =     6.40  PRESS =   376.5
 Etot   =        46.0051  EKtot   =        26.9747  EPtot      =        37.3487
 BOND   =         0.9829  ANGLE   =         1.0486  DIHED      =         0.2955
 1-4 NB =         0.0000  1-4 EEL =         0.0241  VDWAALS    =        38.5564
 EELEC  =        61.9889  EHBOND  =         0.0000  RESTRAINT  =         0.0000
 EKCMT  =        19.0999  VIRIAL  =       175.3039  VOLUME     =        70.7874
                                                    Density    =         0.0032
 DV/DL  =         2.1430
 Ewald error estimate:   0.1486E-03
 ------------------------------------------------------------------------------

      DV/DL, AVERAGES OVER   50000 STEPS

 NSTEP =   500000   TIME(PS) =    1000.000  TEMP(K) =     6.40  PRESS =     0.0
 Etot   =         0.0000  EKtot   =         0.0000  EPtot      =        -2.1903
 BOND   =         0.0000  ANGLE   =         0.0000  DIHED      =         0.0000
 1-4 NB =         0.0000  1-4 EEL =        -3.8261  VDWAALS    =         0.0000
 EELEC  =         1.6358  EHBOND  =         0.0000  RESTRAINT  =         0.0000
 EKCMT  =         0.0000  VIRIAL  =         0.0000  VOLUME     =         0.0000
                                                    Density    =         0.0000
 DV/DL  =        -2.1903
 Ewald error estimate:   0.0000E+00
 ------------------------------------------------------------------------------

      A V E R A G E S   O V E R  500000 S T E P S

 NSTEP =   500000   TIME(PS) =    1000.000  TEMP(K) =   297.85  PRESS =     1.4
 Etot   =     -5479.4092  EKtot   =      1254.7880  EPtot      =     -6734.1972
 BOND   =         1.5540  ANGLE   =         1.7800  DIHED      =         0.3023
 1-4 NB =         0.0000  1-4 EEL =         0.7651  VDWAALS    =      1009.3141
 EELEC  =     -7747.9127  EHBOND  =         0.0000  RESTRAINT  =         0.0000
 EKCMT  =       626.2178  VIRIAL  =       625.5890  VOLUME     =     21400.9346
                                                    Density    =         0.9852
 DV/DL  =        -2.4342
 Ewald error estimate:   0.2054E-03
 ------------------------------------------------------------------------------

      R M S  F L U C T U A T I O N S

 NSTEP =   500000   TIME(PS) =    1000.000  TEMP(K) =     6.49  PRESS =   383.9
 Etot   =        48.2507  EKtot   =        27.3341  EPtot      =        38.6315
 BOND   =         0.9669  ANGLE   =         1.0182  DIHED      =         0.3042
 1-4 NB =         0.0000  1-4 EEL =         0.0232  VDWAALS    =        37.7609
 EELEC  =        60.7891  EHBOND  =         0.0000  RESTRAINT  =         0.0000
 EKCMT  =        19.0347  VIRIAL  =       177.5481  VOLUME     =        93.3889
                                                    Density    =         0.0043
 DV/DL  =         2.1504
 Ewald error estimate:   0.1546E-03
 ------------------------------------------------------------------------------

      A V E R A G E S   O V E R  500000 S T E P S

 NSTEP =   500000   TIME(PS) =    1000.000  TEMP(K) =   297.85  PRESS =     1.4
 Etot   =     -5479.4092  EKtot   =      1254.7880  EPtot      =     -6734.1972
 BOND   =         1.5540  ANGLE   =         1.7800  DIHED      =         0.3023
 1-4 NB =         0.0000  1-4 EEL =         0.7651  VDWAALS    =      1009.3141
 EELEC  =     -7747.9127  EHBOND  =         0.0000  RESTRAINT  =         0.0000
 EKCMT  =       626.2178  VIRIAL  =       625.5890  VOLUME     =     21400.9346
                                                    Density    =         0.9852
 DV/DL  =        -2.4342
 Ewald error estimate:   0.2054E-03
 ------------------------------------------------------------------------------

      R M S  F L U C T U A T I O N S

 NSTEP =   500000   TIME(PS) =    1000.000  TEMP(K) =     6.49  PRESS =   383.9
 Etot   =        48.2507  EKtot   =        27.3341  EPtot      =        38.6315
 BOND   =         0.9669  ANGLE   =         1.0182  DIHED      =         0.3042
 1-4 NB =         0.0000  1-4 EEL =         0.0232  VDWAALS    =        37.7609
 EELEC  =        60.7891  EHBOND  =         0.0000  RESTRAINT  =         0.0000
 EKCMT  =        19.0347  VIRIAL  =       177.5481  VOLUME     =        93.3889
                                                    Density    =         0.0043
 DV/DL  =         2.1504
 Ewald error estimate:   0.1546E-03
 ------------------------------------------------------------------------------

      DV/DL, AVERAGES OVER  500000 STEPS

 NSTEP =   500000   TIME(PS) =    1000.000  TEMP(K) =     6.49  PRESS =     0.0
 Etot   =         0.0000  EKtot   =         0.0000  EPtot      =        -2.4342
 BOND   =         0.0000  ANGLE   =         0.0000  DIHED      =         0.0000
 1-4 NB =         0.0000  1-4 EEL =        -3.8257  VDWAALS    =         0.0000
 EELEC  =         1.3915  EHBOND  =         0.0000  RESTRAINT  =         0.0000
 EKCMT  =         0.0000  VIRIAL  =         0.0000  VOLUME     =         0.0000
                                                    Density    =         0.0000
 DV/DL  =        -2.4342
 Ewald error estimate:   0.0000E+00
 ------------------------------------------------------------------------------
