-------------------------------------------------------
          Amber 14 SANDER                              2014
          -------------------------------------------------------

  [-O]verwriting output

File Assignments:

 Here is the input file:

MD simulation
 &cntrl
   imin = 0, nstlim = 500000, irest = 1, ntx = 5, dt = 0.001,
   ntt = 3, temp0 = 298.0, gamma_ln = 2.0, ig = -1,
   ntp = 1, pres0 = 1.01325, taup = 2.0,
   ntb = 2,
   ioutfm = 1, iwrap = 1,
   ntwe = 10000, ntwx = 10000, ntpr = 10000, ntwr = 50000, ntave = 50000,

   ntc = 2, ntf = 1,
   noshakemask = ':1,2',

   icfe = 1, ifsc = 0, clambda = 0.8, scalpha = 0.5, scbeta = 12.0,
   logdvdl = 1,
   ifmbar = 1, bar_intervall = 1000, bar_l_min = 0.0, bar_l_max = 1.0,
   bar_l_incr = 0.1,
   timask1 = ':1', timask2 = ':2'
 /
 &ewald
 /

Note: ig = -1. Setting random seed to   103429 based on wallclock time in
      microseconds and disabling the synchronization of random numbers
      between tasks to improve performance.

--------------------------------------------------------------------------------
   1.  RESOURCE   USE:
--------------------------------------------------------------------------------

 getting new box info from bottom of inpcrd
 NATOM  =    2121 NTYPES =       6 NBONH =    2117 MBONA  =       2
 NTHETH =      14 MTHETA =       0 NPHIH =       6 MPHIA  =       0
 NHPARM =       0 NPARM  =       0 NNB   =    2844 NRES   =     705
 NBONA  =       2 NTHETA =       0 NPHIA =       0 NUMBND =       5
 NUMANG =       3 NPTRA  =       1 NATYP =       6 NPHB   =       1
 IFBOX  =       1 NMXRS  =       6 IFCAP =       0 NEXTRA =       0
 NCOPY  =       0

     BOX TYPE: RECTILINEAR

--------------------------------------------------------------------------------
   2.  CONTROL  DATA  FOR  THE  RUN
--------------------------------------------------------------------------------

L0

General flags:
     imin    =       0, nmropt  =       0

Nature and format of input:
     ntx     =       5, irest   =       1, ntrx    =       1

Nature and format of output:
     ntxo    =       1, ntpr    =   10000, ntrx    =       1, ntwr    =   50000
     iwrap   =       1, ntwx    =   10000, ntwv    =       0, ntwe    =   10000
     ioutfm  =       1, ntwprt  =       0, idecomp =       0, rbornstat=      0

Potential function:
     ntf     =       1, ntb     =       2, igb     =       0, nsnb    =      25
     ipol    =       0, gbsa    =       0, iesp    =       0
     dielc   =   1.00000, cut     =   8.00000, intdiel =   1.00000

Frozen or restrained atoms:
     ibelly  =       0, ntr     =       0

Molecular dynamics:
     nstlim  =    500000, nscm    =      1000, nrespa  =         1
     t       =   0.00000, dt      =   0.00100, vlimit  =  20.00000

Langevin dynamics temperature regulation:
     ig      =  103429
     temp0   = 298.00000, tempi   =   0.00000, gamma_ln=   2.00000

Pressure regulation:
     ntp     =       1
     pres0   =   1.01325, comp    =  44.60000, taup    =   2.00000

SHAKE:
     ntc     =       2, jfastw  =       0
     tol     =   0.00001

Free energy options:
     icfe    =       1, ifsc    =       0, klambda =       1
     clambda =  0.8000, scalpha =  0.5000, scbeta  = 12.0000
     sceeorder =       2
     dynlmb =  0.0000 logdvdl =       1

FEP MBAR options:
     ifmbar  =       1,  bar_intervall =     1000
     bar_l_min =0.0000,  bar_l_max =1.0000,  bar_l_incr =0.1000

Ewald parameters:
     verbose =       0, ew_type =       0, nbflag  =       1, use_pme =       1
     vdwmeth =       1, eedmeth =       1, netfrc  =       1
     Box X =   28.177   Box Y =   27.796   Box Z =   27.415
     Alpha =   90.000   Beta  =   90.000   Gamma =   90.000
     NFFT1 =   30       NFFT2 =   30       NFFT3 =   30
     Cutoff=    8.000   Tol   =0.100E-04
     Ewald Coefficient =  0.34864
     Interpolation order =    4

     TI Mask 1 :1; matches      6 atoms
     TI Mask 2 :2; matches      6 atoms
     TI region 1:    2115 atoms
     TI region 2:    2115 atoms

    MBAR - lambda values considered:
      11 total:  0.0000 0.1000 0.2000 0.3000 0.4000 0.5000 0.6000 0.7000 0.8000 0.9000 1.0000
    Extra energies will be computed    500 times.
     Checking for mismatched coordinates.
 Noshake mask :1,2; matches      12 atoms.

--------------------------------------------------------------------------------
   3.  ATOMIC COORDINATES AND VELOCITIES
--------------------------------------------------------------------------------

L0
 begin time read from input coords =  1000.000 ps

 Number of triangulated 3-point waters found:      703
   Removing shake constraints from O2    L0    1 -- H6    L0    1
   Removing shake constraints from C1    L0    1 -- H3    L0    1
   Removing shake constraints from C1    L0    1 -- H4    L0    1
   Removing shake constraints from C1    L0    1 -- H5    L0    1
   Removing shake constraints from O2    INT   2 -- H6    INT   2
   Removing shake constraints from C1    INT   2 -- H3    INT   2
   Removing shake constraints from C1    INT   2 -- H4    INT   2
   Removing shake constraints from C1    INT   2 -- H5    INT   2
 Number of shake restraints removed:        8

     Sum of charges for TI region  1 =   0.00000000
     Forcing neutrality...

     Sum of charges for TI region  2 =   0.00000000
     Forcing neutrality...

--------------------------------------------------------------------------------
   4.  RESULTS
 NSTEP =    10000   TIME(PS) =    1010.000  TEMP(K) =   300.95  PRESS =  -599.6
 Etot   =     -5483.6406  EKtot   =      1267.8770  EPtot      =     -6751.5176
 BOND   =         3.4136  ANGLE   =         1.8096  DIHED      =         0.8714
 1-4 NB =         0.0000  1-4 EEL =         0.7755  VDWAALS    =       965.2817
 EELEC  =     -7723.6695  EHBOND  =         0.0000  RESTRAINT  =         0.0000
 EKCMT  =       623.3814  VIRIAL  =       900.9207  VOLUME     =     21438.8455
                                                    Density    =         0.9835
 DV/DL  =         0.6325
 Ewald error estimate:   0.1001E-03
 ------------------------------------------------------------------------------

      A V E R A G E S   O V E R   50000 S T E P S

 NSTEP =    50000   TIME(PS) =    1050.000  TEMP(K) =   298.31  PRESS =     1.4
 Etot   =     -5478.4996  EKtot   =      1256.7437  EPtot      =     -6735.2434
 BOND   =         1.5226  ANGLE   =         1.8283  DIHED      =         0.3015
 1-4 NB =         0.0000  1-4 EEL =         0.7651  VDWAALS    =      1010.0258
 EELEC  =     -7749.6866  EHBOND  =         0.0000  RESTRAINT  =         0.0000
 EKCMT  =       627.2458  VIRIAL  =       626.5938  VOLUME     =     21410.7566
                                                    Density    =         0.9848
 DV/DL  =        -2.4040
 Ewald error estimate:   0.2070E-03
 ------------------------------------------------------------------------------

      R M S  F L U C T U A T I O N S

 NSTEP =    50000   TIME(PS) =    1050.000  TEMP(K) =     6.43  PRESS =   389.1
 Etot   =        48.4470  EKtot   =        27.0959  EPtot      =        40.6386
 BOND   =         0.9139  ANGLE   =         1.0327  DIHED      =         0.3024
 1-4 NB =         0.0000  1-4 EEL =         0.0231  VDWAALS    =        38.0381
 EELEC  =        62.8853  EHBOND  =         0.0000  RESTRAINT  =         0.0000
 EKCMT  =        19.4974  VIRIAL  =       179.6535  VOLUME     =        75.6693
                                                    Density    =         0.0035
 DV/DL  =         2.1554
 Ewald error estimate:   0.1548E-03
 ------------------------------------------------------------------------------

      A V E R A G E S   O V E R   50000 S T E P S

 NSTEP =    50000   TIME(PS) =    1050.000  TEMP(K) =   298.31  PRESS =     1.4
 Etot   =     -5478.4996  EKtot   =      1256.7437  EPtot      =     -6735.2434
 BOND   =         1.5226  ANGLE   =         1.8283  DIHED      =         0.3015
 1-4 NB =         0.0000  1-4 EEL =         0.7651  VDWAALS    =      1010.0258
 EELEC  =     -7749.6866  EHBOND  =         0.0000  RESTRAINT  =         0.0000
 EKCMT  =       627.2458  VIRIAL  =       626.5938  VOLUME     =     21410.7566
                                                    Density    =         0.9848
 DV/DL  =        -2.4040
 Ewald error estimate:   0.2070E-03
 ------------------------------------------------------------------------------

      R M S  F L U C T U A T I O N S

 NSTEP =    50000   TIME(PS) =    1050.000  TEMP(K) =     6.43  PRESS =   389.1
 Etot   =        48.4470  EKtot   =        27.0959  EPtot      =        40.6386
 BOND   =         0.9139  ANGLE   =         1.0327  DIHED      =         0.3024
 1-4 NB =         0.0000  1-4 EEL =         0.0231  VDWAALS    =        38.0381
 EELEC  =        62.8853  EHBOND  =         0.0000  RESTRAINT  =         0.0000
 EKCMT  =        19.4974  VIRIAL  =       179.6535  VOLUME     =        75.6693
                                                    Density    =         0.0035
 DV/DL  =         2.1554
 Ewald error estimate:   0.1548E-03
 ------------------------------------------------------------------------------

      DV/DL, AVERAGES OVER   50000 STEPS

 NSTEP =    50000   TIME(PS) =    1050.000  TEMP(K) =     6.43  PRESS =     0.0
 Etot   =         0.0000  EKtot   =         0.0000  EPtot      =        -2.4040
 BOND   =         0.0000  ANGLE   =         0.0000  DIHED      =         0.0000
 1-4 NB =         0.0000  1-4 EEL =        -3.8254  VDWAALS    =         0.0000
 EELEC  =         1.4214  EHBOND  =         0.0000  RESTRAINT  =         0.0000
 EKCMT  =         0.0000  VIRIAL  =         0.0000  VOLUME     =         0.0000
                                                    Density    =         0.0000
 DV/DL  =        -2.4040
 Ewald error estimate:   0.0000E+00
 ------------------------------------------------------------------------------

      A V E R A G E S   O V E R   50000 S T E P S

 NSTEP =   100000   TIME(PS) =    1100.000  TEMP(K) =   297.32  PRESS =    -4.9
 Etot   =     -5485.1596  EKtot   =      1252.5653  EPtot      =     -6737.7249
 BOND   =         1.5518  ANGLE   =         1.8453  DIHED      =         0.3552
 1-4 NB =         0.0000  1-4 EEL =         0.7654  VDWAALS    =      1013.1703
 EELEC  =     -7755.4129  EHBOND  =         0.0000  RESTRAINT  =         0.0000
 EKCMT  =       624.4234  VIRIAL  =       626.6705  VOLUME     =     21445.8573
                                                    Density    =         0.9832
 DV/DL  =        -2.4191
 Ewald error estimate:   0.2033E-03
 ------------------------------------------------------------------------------

      R M S  F L U C T U A T I O N S

 NSTEP =   100000   TIME(PS) =    1100.000  TEMP(K) =     6.52  PRESS =   391.4
 Etot   =        49.3730  EKtot   =        27.4674  EPtot      =        39.4833
 BOND   =         0.9787  ANGLE   =         1.0455  DIHED      =         0.3272
 1-4 NB =         0.0000  1-4 EEL =         0.0236  VDWAALS    =        38.0178
 EELEC  =        61.3692  EHBOND  =         0.0000  RESTRAINT  =         0.0000
 EKCMT  =        19.4867  VIRIAL  =       180.2978  VOLUME     =        83.4226
                                                    Density    =         0.0038
 DV/DL  =         2.1403
 Ewald error estimate:   0.1507E-03
 ------------------------------------------------------------------------------

      A V E R A G E S   O V E R   50000 S T E P S

 NSTEP =   100000   TIME(PS) =    1100.000  TEMP(K) =   297.32  PRESS =    -4.9
 Etot   =     -5485.1596  EKtot   =      1252.5653  EPtot      =     -6737.7249
 BOND   =         1.5518  ANGLE   =         1.8453  DIHED      =         0.3552
 1-4 NB =         0.0000  1-4 EEL =         0.7654  VDWAALS    =      1013.1703
 EELEC  =     -7755.4129  EHBOND  =         0.0000  RESTRAINT  =         0.0000
 EKCMT  =       624.4234  VIRIAL  =       626.6705  VOLUME     =     21445.8573
                                                    Density    =         0.9832
 DV/DL  =        -2.4191
 Ewald error estimate:   0.2033E-03
 ------------------------------------------------------------------------------

      R M S  F L U C T U A T I O N S

 NSTEP =   100000   TIME(PS) =    1100.000  TEMP(K) =     6.52  PRESS =   391.4
 Etot   =        49.3730  EKtot   =        27.4674  EPtot      =        39.4833
 BOND   =         0.9787  ANGLE   =         1.0455  DIHED      =         0.3272
 1-4 NB =         0.0000  1-4 EEL =         0.0236  VDWAALS    =        38.0178
 EELEC  =        61.3692  EHBOND  =         0.0000  RESTRAINT  =         0.0000
 EKCMT  =        19.4867  VIRIAL  =       180.2978  VOLUME     =        83.4226
                                                    Density    =         0.0038
 DV/DL  =         2.1403
 Ewald error estimate:   0.1507E-03
 ------------------------------------------------------------------------------

      DV/DL, AVERAGES OVER   50000 STEPS

 NSTEP =   100000   TIME(PS) =    1100.000  TEMP(K) =     6.52  PRESS =     0.0
 Etot   =         0.0000  EKtot   =         0.0000  EPtot      =        -2.4191
 BOND   =         0.0000  ANGLE   =         0.0000  DIHED      =         0.0000
 1-4 NB =         0.0000  1-4 EEL =        -3.8270  VDWAALS    =         0.0000
 EELEC  =         1.4079  EHBOND  =         0.0000  RESTRAINT  =         0.0000
 EKCMT  =         0.0000  VIRIAL  =         0.0000  VOLUME     =         0.0000
                                                    Density    =         0.0000
 DV/DL  =        -2.4191
 Ewald error estimate:   0.0000E+00
 ------------------------------------------------------------------------------

      A V E R A G E S   O V E R   50000 S T E P S

 NSTEP =   500000   TIME(PS) =    1500.000  TEMP(K) =   297.05  PRESS =     6.0
 Etot   =     -5491.4936  EKtot   =      1251.4145  EPtot      =     -6742.9081
 BOND   =         1.5680  ANGLE   =         1.8066  DIHED      =         0.3020
 1-4 NB =         0.0000  1-4 EEL =         0.7650  VDWAALS    =      1013.8436
 EELEC  =     -7761.1933  EHBOND  =         0.0000  RESTRAINT  =         0.0000
 EKCMT  =       624.1159  VIRIAL  =       621.3487  VOLUME     =     21393.5325
                                                    Density    =         0.9856
 DV/DL  =        -2.2223
 Ewald error estimate:   0.2119E-03
 ------------------------------------------------------------------------------

      R M S  F L U C T U A T I O N S

 NSTEP =   500000   TIME(PS) =    1500.000  TEMP(K) =     6.26  PRESS =   377.9
 Etot   =        40.6510  EKtot   =        26.3860  EPtot      =        34.7470
 BOND   =         0.9977  ANGLE   =         1.0331  DIHED      =         0.3017
 1-4 NB =         0.0000  1-4 EEL =         0.0217  VDWAALS    =        36.2934
 EELEC  =        54.7000  EHBOND  =         0.0000  RESTRAINT  =         0.0000
 EKCMT  =        19.4891  VIRIAL  =       174.4734  VOLUME     =        93.5807
                                                    Density    =         0.0043
 DV/DL  =         2.2022
 Ewald error estimate:   0.1598E-03
 ------------------------------------------------------------------------------

      A V E R A G E S   O V E R   50000 S T E P S

 NSTEP =   500000   TIME(PS) =    1500.000  TEMP(K) =   297.05  PRESS =     6.0
 Etot   =     -5491.4936  EKtot   =      1251.4145  EPtot      =     -6742.9081
 BOND   =         1.5680  ANGLE   =         1.8066  DIHED      =         0.3020
 1-4 NB =         0.0000  1-4 EEL =         0.7650  VDWAALS    =      1013.8436
 EELEC  =     -7761.1933  EHBOND  =         0.0000  RESTRAINT  =         0.0000
 EKCMT  =       624.1159  VIRIAL  =       621.3487  VOLUME     =     21393.5325
                                                    Density    =         0.9856
 DV/DL  =        -2.2223
 Ewald error estimate:   0.2119E-03
 ------------------------------------------------------------------------------

      R M S  F L U C T U A T I O N S

 NSTEP =   500000   TIME(PS) =    1500.000  TEMP(K) =     6.26  PRESS =   377.9
 Etot   =        40.6510  EKtot   =        26.3860  EPtot      =        34.7470
 BOND   =         0.9977  ANGLE   =         1.0331  DIHED      =         0.3017
 1-4 NB =         0.0000  1-4 EEL =         0.0217  VDWAALS    =        36.2934
 EELEC  =        54.7000  EHBOND  =         0.0000  RESTRAINT  =         0.0000
 EKCMT  =        19.4891  VIRIAL  =       174.4734  VOLUME     =        93.5807
                                                    Density    =         0.0043
 DV/DL  =         2.2022
 Ewald error estimate:   0.1598E-03
 ------------------------------------------------------------------------------

      DV/DL, AVERAGES OVER   50000 STEPS

 NSTEP =   500000   TIME(PS) =    1500.000  TEMP(K) =     6.26  PRESS =     0.0
 Etot   =         0.0000  EKtot   =         0.0000  EPtot      =        -2.2223
 BOND   =         0.0000  ANGLE   =         0.0000  DIHED      =         0.0000
 1-4 NB =         0.0000  1-4 EEL =        -3.8248  VDWAALS    =         0.0000
 EELEC  =         1.6025  EHBOND  =         0.0000  RESTRAINT  =         0.0000
 EKCMT  =         0.0000  VIRIAL  =         0.0000  VOLUME     =         0.0000
                                                    Density    =         0.0000
 DV/DL  =        -2.2223
 Ewald error estimate:   0.0000E+00
 ------------------------------------------------------------------------------

      A V E R A G E S   O V E R  500000 S T E P S

 NSTEP =   500000   TIME(PS) =    1500.000  TEMP(K) =   297.44  PRESS =     0.8
 Etot   =     -5485.0366  EKtot   =      1253.0871  EPtot      =     -6738.1237
 BOND   =         1.5850  ANGLE   =         1.8064  DIHED      =         0.3170
 1-4 NB =         0.0000  1-4 EEL =         0.7652  VDWAALS    =      1011.3288
 EELEC  =     -7753.9261  EHBOND  =         0.0000  RESTRAINT  =         0.0000
 EKCMT  =       625.2557  VIRIAL  =       624.8989  VOLUME     =     21405.3511
                                                    Density    =         0.9850
 DV/DL  =        -2.4258
 Ewald error estimate:   0.2061E-03
 ------------------------------------------------------------------------------

      R M S  F L U C T U A T I O N S

 NSTEP =   500000   TIME(PS) =    1500.000  TEMP(K) =     6.39  PRESS =   383.8
 Etot   =        47.6276  EKtot   =        26.9260  EPtot      =        39.0848
 BOND   =         0.9990  ANGLE   =         1.0230  DIHED      =         0.3108
 1-4 NB =         0.0000  1-4 EEL =         0.0230  VDWAALS    =        38.0650
 EELEC  =        61.6352  EHBOND  =         0.0000  RESTRAINT  =         0.0000
 EKCMT  =        19.2297  VIRIAL  =       177.0186  VOLUME     =        92.2669
                                                    Density    =         0.0043
 DV/DL  =         2.1044
 Ewald error estimate:   0.1551E-03
 ------------------------------------------------------------------------------

      A V E R A G E S   O V E R  500000 S T E P S

 NSTEP =   500000   TIME(PS) =    1500.000  TEMP(K) =   297.44  PRESS =     0.8
 Etot   =     -5485.0366  EKtot   =      1253.0871  EPtot      =     -6738.1237
 BOND   =         1.5850  ANGLE   =         1.8064  DIHED      =         0.3170
 1-4 NB =         0.0000  1-4 EEL =         0.7652  VDWAALS    =      1011.3288
 EELEC  =     -7753.9261  EHBOND  =         0.0000  RESTRAINT  =         0.0000
 EKCMT  =       625.2557  VIRIAL  =       624.8989  VOLUME     =     21405.3511
                                                    Density    =         0.9850
 DV/DL  =        -2.4258
 Ewald error estimate:   0.2061E-03
 ------------------------------------------------------------------------------

      R M S  F L U C T U A T I O N S

 NSTEP =   500000   TIME(PS) =    1500.000  TEMP(K) =     6.39  PRESS =   383.8
 Etot   =        47.6276  EKtot   =        26.9260  EPtot      =        39.0848
 BOND   =         0.9990  ANGLE   =         1.0230  DIHED      =         0.3108
 1-4 NB =         0.0000  1-4 EEL =         0.0230  VDWAALS    =        38.0650
 EELEC  =        61.6352  EHBOND  =         0.0000  RESTRAINT  =         0.0000
 EKCMT  =        19.2297  VIRIAL  =       177.0186  VOLUME     =        92.2669
                                                    Density    =         0.0043
 DV/DL  =         2.1044
 Ewald error estimate:   0.1551E-03
 ------------------------------------------------------------------------------

      DV/DL, AVERAGES OVER  500000 STEPS

 NSTEP =   500000   TIME(PS) =    1500.000  TEMP(K) =     6.39  PRESS =     0.0
 Etot   =         0.0000  EKtot   =         0.0000  EPtot      =        -2.4258
 BOND   =         0.0000  ANGLE   =         0.0000  DIHED      =         0.0000
 1-4 NB =         0.0000  1-4 EEL =        -3.8259  VDWAALS    =         0.0000
 EELEC  =         1.4001  EHBOND  =         0.0000  RESTRAINT  =         0.0000
 EKCMT  =         0.0000  VIRIAL  =         0.0000  VOLUME     =         0.0000
                                                    Density    =         0.0000
 DV/DL  =        -2.4258
 Ewald error estimate:   0.0000E+00
 ------------------------------------------------------------------------------
