-------------------------------------------------------
          Amber 14 SANDER                              2014
          -------------------------------------------------------

  [-O]verwriting output

File Assignments:

 Here is the input file:

MD simulation
 &cntrl
   imin = 0, nstlim = 500000, irest = 1, ntx = 5, dt = 0.001,
   ntt = 3, temp0 = 298.0, gamma_ln = 2.0, ig = -1,
   ntp = 1, pres0 = 1.01325, taup = 2.0,
   ntb = 2,
   ioutfm = 1, iwrap = 1,
   ntwe = 10000, ntwx = 10000, ntpr = 10000, ntwr = 50000, ntave = 50000,

   ntc = 2, ntf = 1,
   noshakemask = ':1,2',

   icfe = 1, ifsc = 0, clambda = 0.2, scalpha = 0.5, scbeta = 12.0,
   logdvdl = 1,
   ifmbar = 1, bar_intervall = 1000, bar_l_min = 0.0, bar_l_max = 1.0,
   bar_l_incr = 0.1,
   timask1 = ':1', timask2 = ':2'
 /
 &ewald
 /

Note: ig = -1. Setting random seed to   315380 based on wallclock time in
      microseconds and disabling the synchronization of random numbers
      between tasks to improve performance.

--------------------------------------------------------------------------------
   1.  RESOURCE   USE:
--------------------------------------------------------------------------------

 getting new box info from bottom of inpcrd
 NATOM  =    2121 NTYPES =       6 NBONH =    2117 MBONA  =       2
 NTHETH =      14 MTHETA =       0 NPHIH =       6 MPHIA  =       0
 NHPARM =       0 NPARM  =       0 NNB   =    2844 NRES   =     705
 NBONA  =       2 NTHETA =       0 NPHIA =       0 NUMBND =       5
 NUMANG =       3 NPTRA  =       1 NATYP =       6 NPHB   =       1
 IFBOX  =       1 NMXRS  =       6 IFCAP =       0 NEXTRA =       0
 NCOPY  =       0

     BOX TYPE: RECTILINEAR

--------------------------------------------------------------------------------
   2.  CONTROL  DATA  FOR  THE  RUN
--------------------------------------------------------------------------------

L0

General flags:
     imin    =       0, nmropt  =       0

Nature and format of input:
     ntx     =       5, irest   =       1, ntrx    =       1

Nature and format of output:
     ntxo    =       1, ntpr    =   10000, ntrx    =       1, ntwr    =   50000
     iwrap   =       1, ntwx    =   10000, ntwv    =       0, ntwe    =   10000
     ioutfm  =       1, ntwprt  =       0, idecomp =       0, rbornstat=      0

Potential function:
     ntf     =       1, ntb     =       2, igb     =       0, nsnb    =      25
     ipol    =       0, gbsa    =       0, iesp    =       0
     dielc   =   1.00000, cut     =   8.00000, intdiel =   1.00000

Frozen or restrained atoms:
     ibelly  =       0, ntr     =       0

Molecular dynamics:
     nstlim  =    500000, nscm    =      1000, nrespa  =         1
     t       =   0.00000, dt      =   0.00100, vlimit  =  20.00000

Langevin dynamics temperature regulation:
     ig      =  315380
     temp0   = 298.00000, tempi   =   0.00000, gamma_ln=   2.00000

Pressure regulation:
     ntp     =       1
     pres0   =   1.01325, comp    =  44.60000, taup    =   2.00000

SHAKE:
     ntc     =       2, jfastw  =       0
     tol     =   0.00001

Free energy options:
     icfe    =       1, ifsc    =       0, klambda =       1
     clambda =  0.2000, scalpha =  0.5000, scbeta  = 12.0000
     sceeorder =       2
     dynlmb =  0.0000 logdvdl =       1

FEP MBAR options:
     ifmbar  =       1,  bar_intervall =     1000
     bar_l_min =0.0000,  bar_l_max =1.0000,  bar_l_incr =0.1000

Ewald parameters:
     verbose =       0, ew_type =       0, nbflag  =       1, use_pme =       1
     vdwmeth =       1, eedmeth =       1, netfrc  =       1
     Box X =   28.102   Box Y =   27.722   Box Z =   27.342
     Alpha =   90.000   Beta  =   90.000   Gamma =   90.000
     NFFT1 =   30       NFFT2 =   30       NFFT3 =   30
     Cutoff=    8.000   Tol   =0.100E-04
     Ewald Coefficient =  0.34864
     Interpolation order =    4

     TI Mask 1 :1; matches      6 atoms
     TI Mask 2 :2; matches      6 atoms
     TI region 1:    2115 atoms
     TI region 2:    2115 atoms

    MBAR - lambda values considered:
      11 total:  0.0000 0.1000 0.2000 0.3000 0.4000 0.5000 0.6000 0.7000 0.8000 0.9000 1.0000
    Extra energies will be computed    500 times.
     Checking for mismatched coordinates.
 Noshake mask :1,2; matches      12 atoms.

--------------------------------------------------------------------------------
   3.  ATOMIC COORDINATES AND VELOCITIES
--------------------------------------------------------------------------------

L0
 begin time read from input coords =  1000.000 ps

 Number of triangulated 3-point waters found:      703
   Removing shake constraints from O2    L0    1 -- H6    L0    1
   Removing shake constraints from C1    L0    1 -- H3    L0    1
   Removing shake constraints from C1    L0    1 -- H4    L0    1
   Removing shake constraints from C1    L0    1 -- H5    L0    1
   Removing shake constraints from O2    INT   2 -- H6    INT   2
   Removing shake constraints from C1    INT   2 -- H3    INT   2
   Removing shake constraints from C1    INT   2 -- H4    INT   2
   Removing shake constraints from C1    INT   2 -- H5    INT   2
 Number of shake restraints removed:        8

     Sum of charges for TI region  1 =   0.00000000
     Forcing neutrality...

     Sum of charges for TI region  2 =   0.00000000
     Forcing neutrality...

--------------------------------------------------------------------------------
   4.  RESULTS
 NSTEP =    10000   TIME(PS) =    1010.000  TEMP(K) =   295.91  PRESS =   108.1
 Etot   =     -5507.4981  EKtot   =      1246.6184  EPtot      =     -6754.1165
 BOND   =         1.6562  ANGLE   =         0.5022  DIHED      =         0.2590
 1-4 NB =         0.0000  1-4 EEL =         2.9497  VDWAALS    =      1026.0746
 EELEC  =     -7785.5582  EHBOND  =         0.0000  RESTRAINT  =         0.0000
 EKCMT  =       602.1391  VIRIAL  =       552.2409  VOLUME     =     21385.8445
                                                    Density    =         0.9859
 DV/DL  =         8.0602
 Ewald error estimate:   0.4490E-04
 ------------------------------------------------------------------------------

      A V E R A G E S   O V E R   50000 S T E P S

 NSTEP =    50000   TIME(PS) =    1050.000  TEMP(K) =   297.79  PRESS =    12.3
 Etot   =     -5482.9342  EKtot   =      1254.5315  EPtot      =     -6737.4657
 BOND   =         1.6857  ANGLE   =         1.9552  DIHED      =         0.3034
 1-4 NB =         0.0000  1-4 EEL =         3.0571  VDWAALS    =      1012.4869
 EELEC  =     -7756.9540  EHBOND  =         0.0000  RESTRAINT  =         0.0000
 EKCMT  =       626.4445  VIRIAL  =       620.7720  VOLUME     =     21404.1021
                                                    Density    =         0.9851
 DV/DL  =         5.8591
 Ewald error estimate:   0.2062E-03
 ------------------------------------------------------------------------------

      R M S  F L U C T U A T I O N S

 NSTEP =    50000   TIME(PS) =    1050.000  TEMP(K) =     6.38  PRESS =   381.7
 Etot   =        43.5463  EKtot   =        26.8847  EPtot      =        35.3904
 BOND   =         1.1279  ANGLE   =         1.1279  DIHED      =         0.3044
 1-4 NB =         0.0000  1-4 EEL =         0.0942  VDWAALS    =        38.4042
 EELEC  =        59.9774  EHBOND  =         0.0000  RESTRAINT  =         0.0000
 EKCMT  =        19.0272  VIRIAL  =       176.6471  VOLUME     =        58.8950
                                                    Density    =         0.0027
 DV/DL  =         3.5778
 Ewald error estimate:   0.1557E-03
 ------------------------------------------------------------------------------

      A V E R A G E S   O V E R   50000 S T E P S

 NSTEP =    50000   TIME(PS) =    1050.000  TEMP(K) =   297.79  PRESS =    12.3
 Etot   =     -5482.9342  EKtot   =      1254.5315  EPtot      =     -6737.4657
 BOND   =         1.6857  ANGLE   =         1.9552  DIHED      =         0.3034
 1-4 NB =         0.0000  1-4 EEL =         3.0571  VDWAALS    =      1012.4869
 EELEC  =     -7756.9540  EHBOND  =         0.0000  RESTRAINT  =         0.0000
 EKCMT  =       626.4445  VIRIAL  =       620.7720  VOLUME     =     21404.1021
                                                    Density    =         0.9851
 DV/DL  =         5.8591
 Ewald error estimate:   0.2062E-03
 ------------------------------------------------------------------------------

      R M S  F L U C T U A T I O N S

 NSTEP =    50000   TIME(PS) =    1050.000  TEMP(K) =     6.38  PRESS =   381.7
 Etot   =        43.5463  EKtot   =        26.8847  EPtot      =        35.3904
 BOND   =         1.1279  ANGLE   =         1.1279  DIHED      =         0.3044
 1-4 NB =         0.0000  1-4 EEL =         0.0942  VDWAALS    =        38.4042
 EELEC  =        59.9774  EHBOND  =         0.0000  RESTRAINT  =         0.0000
 EKCMT  =        19.0272  VIRIAL  =       176.6471  VOLUME     =        58.8950
                                                    Density    =         0.0027
 DV/DL  =         3.5778
 Ewald error estimate:   0.1557E-03
 ------------------------------------------------------------------------------

      DV/DL, AVERAGES OVER   50000 STEPS

 NSTEP =    50000   TIME(PS) =    1050.000  TEMP(K) =     6.38  PRESS =     0.0
 Etot   =         0.0000  EKtot   =         0.0000  EPtot      =         5.8591
 BOND   =         0.0000  ANGLE   =         0.0000  DIHED      =         0.0000
 1-4 NB =         0.0000  1-4 EEL =        -3.8214  VDWAALS    =         0.0000
 EELEC  =         9.6805  EHBOND  =         0.0000  RESTRAINT  =         0.0000
 EKCMT  =         0.0000  VIRIAL  =         0.0000  VOLUME     =         0.0000
                                                    Density    =         0.0000
 DV/DL  =         5.8591
 Ewald error estimate:   0.0000E+00
 ------------------------------------------------------------------------------

      A V E R A G E S   O V E R   50000 S T E P S

 NSTEP =   100000   TIME(PS) =    1100.000  TEMP(K) =   297.00  PRESS =    -3.7
 Etot   =     -5486.8900  EKtot   =      1251.2192  EPtot      =     -6738.1091
 BOND   =         1.5147  ANGLE   =         1.7872  DIHED      =         0.3022
 1-4 NB =         0.0000  1-4 EEL =         3.0551  VDWAALS    =      1012.1763
 EELEC  =     -7756.9446  EHBOND  =         0.0000  RESTRAINT  =         0.0000
 EKCMT  =       625.3741  VIRIAL  =       627.0995  VOLUME     =     21415.7862
                                                    Density    =         0.9846
 DV/DL  =         5.4597
 Ewald error estimate:   0.2050E-03
 ------------------------------------------------------------------------------

      R M S  F L U C T U A T I O N S

 NSTEP =   100000   TIME(PS) =    1100.000  TEMP(K) =     6.29  PRESS =   396.3
 Etot   =        43.5838  EKtot   =        26.4987  EPtot      =        36.1167
 BOND   =         0.9895  ANGLE   =         1.0015  DIHED      =         0.3039
 1-4 NB =         0.0000  1-4 EEL =         0.0917  VDWAALS    =        38.9162
 EELEC  =        59.8037  EHBOND  =         0.0000  RESTRAINT  =         0.0000
 EKCMT  =        18.4860  VIRIAL  =       182.5120  VOLUME     =        96.8740
                                                    Density    =         0.0045
 DV/DL  =         3.4259
 Ewald error estimate:   0.1560E-03
 ------------------------------------------------------------------------------

      A V E R A G E S   O V E R   50000 S T E P S

 NSTEP =   100000   TIME(PS) =    1100.000  TEMP(K) =   297.00  PRESS =    -3.7
 Etot   =     -5486.8900  EKtot   =      1251.2192  EPtot      =     -6738.1091
 BOND   =         1.5147  ANGLE   =         1.7872  DIHED      =         0.3022
 1-4 NB =         0.0000  1-4 EEL =         3.0551  VDWAALS    =      1012.1763
 EELEC  =     -7756.9446  EHBOND  =         0.0000  RESTRAINT  =         0.0000
 EKCMT  =       625.3741  VIRIAL  =       627.0995  VOLUME     =     21415.7862
                                                    Density    =         0.9846
 DV/DL  =         5.4597
 Ewald error estimate:   0.2050E-03
 ------------------------------------------------------------------------------

      R M S  F L U C T U A T I O N S

 NSTEP =   100000   TIME(PS) =    1100.000  TEMP(K) =     6.29  PRESS =   396.3
 Etot   =        43.5838  EKtot   =        26.4987  EPtot      =        36.1167
 BOND   =         0.9895  ANGLE   =         1.0015  DIHED      =         0.3039
 1-4 NB =         0.0000  1-4 EEL =         0.0917  VDWAALS    =        38.9162
 EELEC  =        59.8037  EHBOND  =         0.0000  RESTRAINT  =         0.0000
 EKCMT  =        18.4860  VIRIAL  =       182.5120  VOLUME     =        96.8740
                                                    Density    =         0.0045
 DV/DL  =         3.4259
 Ewald error estimate:   0.1560E-03
 ------------------------------------------------------------------------------

      DV/DL, AVERAGES OVER   50000 STEPS

 NSTEP =   100000   TIME(PS) =    1100.000  TEMP(K) =     6.29  PRESS =     0.0
 Etot   =         0.0000  EKtot   =         0.0000  EPtot      =         5.4597
 BOND   =         0.0000  ANGLE   =         0.0000  DIHED      =         0.0000
 1-4 NB =         0.0000  1-4 EEL =        -3.8189  VDWAALS    =         0.0000
 EELEC  =         9.2786  EHBOND  =         0.0000  RESTRAINT  =         0.0000
 EKCMT  =         0.0000  VIRIAL  =         0.0000  VOLUME     =         0.0000
                                                    Density    =         0.0000
 DV/DL  =         5.4597
 Ewald error estimate:   0.0000E+00
 ------------------------------------------------------------------------------

      A V E R A G E S   O V E R   50000 S T E P S

 NSTEP =   500000   TIME(PS) =    1500.000  TEMP(K) =   298.36  PRESS =     2.5
 Etot   =     -5472.1587  EKtot   =      1256.9406  EPtot      =     -6729.0993
 BOND   =         1.6852  ANGLE   =         1.7740  DIHED      =         0.2897
 1-4 NB =         0.0000  1-4 EEL =         3.0547  VDWAALS    =      1006.7606
 EELEC  =     -7742.6635  EHBOND  =         0.0000  RESTRAINT  =         0.0000
 EKCMT  =       626.8545  VIRIAL  =       625.6945  VOLUME     =     21394.6922
                                                    Density    =         0.9855
 DV/DL  =         5.6381
 Ewald error estimate:   0.2125E-03
 ------------------------------------------------------------------------------

      R M S  F L U C T U A T I O N S

 NSTEP =   500000   TIME(PS) =    1500.000  TEMP(K) =     6.07  PRESS =   365.1
 Etot   =        42.6124  EKtot   =        25.5678  EPtot      =        36.4280
 BOND   =         1.0369  ANGLE   =         0.9564  DIHED      =         0.2967
 1-4 NB =         0.0000  1-4 EEL =         0.0911  VDWAALS    =        36.1452
 EELEC  =        57.9769  EHBOND  =         0.0000  RESTRAINT  =         0.0000
 EKCMT  =        18.6877  VIRIAL  =       169.2548  VOLUME     =        51.5971
                                                    Density    =         0.0024
 DV/DL  =         3.7833
 Ewald error estimate:   0.1601E-03
 ------------------------------------------------------------------------------

      A V E R A G E S   O V E R   50000 S T E P S

 NSTEP =   500000   TIME(PS) =    1500.000  TEMP(K) =   298.36  PRESS =     2.5
 Etot   =     -5472.1587  EKtot   =      1256.9406  EPtot      =     -6729.0993
 BOND   =         1.6852  ANGLE   =         1.7740  DIHED      =         0.2897
 1-4 NB =         0.0000  1-4 EEL =         3.0547  VDWAALS    =      1006.7606
 EELEC  =     -7742.6635  EHBOND  =         0.0000  RESTRAINT  =         0.0000
 EKCMT  =       626.8545  VIRIAL  =       625.6945  VOLUME     =     21394.6922
                                                    Density    =         0.9855
 DV/DL  =         5.6381
 Ewald error estimate:   0.2125E-03
 ------------------------------------------------------------------------------

      R M S  F L U C T U A T I O N S

 NSTEP =   500000   TIME(PS) =    1500.000  TEMP(K) =     6.07  PRESS =   365.1
 Etot   =        42.6124  EKtot   =        25.5678  EPtot      =        36.4280
 BOND   =         1.0369  ANGLE   =         0.9564  DIHED      =         0.2967
 1-4 NB =         0.0000  1-4 EEL =         0.0911  VDWAALS    =        36.1452
 EELEC  =        57.9769  EHBOND  =         0.0000  RESTRAINT  =         0.0000
 EKCMT  =        18.6877  VIRIAL  =       169.2548  VOLUME     =        51.5971
                                                    Density    =         0.0024
 DV/DL  =         3.7833
 Ewald error estimate:   0.1601E-03
 ------------------------------------------------------------------------------

      DV/DL, AVERAGES OVER   50000 STEPS

 NSTEP =   500000   TIME(PS) =    1500.000  TEMP(K) =     6.07  PRESS =     0.0
 Etot   =         0.0000  EKtot   =         0.0000  EPtot      =         5.6381
 BOND   =         0.0000  ANGLE   =         0.0000  DIHED      =         0.0000
 1-4 NB =         0.0000  1-4 EEL =        -3.8184  VDWAALS    =         0.0000
 EELEC  =         9.4565  EHBOND  =         0.0000  RESTRAINT  =         0.0000
 EKCMT  =         0.0000  VIRIAL  =         0.0000  VOLUME     =         0.0000
                                                    Density    =         0.0000
 DV/DL  =         5.6381
 Ewald error estimate:   0.0000E+00
 ------------------------------------------------------------------------------

      A V E R A G E S   O V E R  500000 S T E P S

 NSTEP =   500000   TIME(PS) =    1500.000  TEMP(K) =   297.56  PRESS =     1.3
 Etot   =     -5482.8118  EKtot   =      1253.5692  EPtot      =     -6736.3810
 BOND   =         1.6339  ANGLE   =         1.8119  DIHED      =         0.3002
 1-4 NB =         0.0000  1-4 EEL =         3.0558  VDWAALS    =      1009.8528
 EELEC  =     -7753.0357  EHBOND  =         0.0000  RESTRAINT  =         0.0000
 EKCMT  =       625.7947  VIRIAL  =       625.2161  VOLUME     =     21387.8315
                                                    Density    =         0.9858
 DV/DL  =         5.5974
 Ewald error estimate:   0.2066E-03
 ------------------------------------------------------------------------------

      R M S  F L U C T U A T I O N S

 NSTEP =   500000   TIME(PS) =    1500.000  TEMP(K) =     6.44  PRESS =   391.5
 Etot   =        47.0911  EKtot   =        27.1457  EPtot      =        38.0422
 BOND   =         1.0445  ANGLE   =         1.0304  DIHED      =         0.3027
 1-4 NB =         0.0000  1-4 EEL =         0.0939  VDWAALS    =        38.1550
 EELEC  =        60.1162  EHBOND  =         0.0000  RESTRAINT  =         0.0000
 EKCMT  =        18.9882  VIRIAL  =       180.1870  VOLUME     =        88.9578
                                                    Density    =         0.0041
 DV/DL  =         3.6267
 Ewald error estimate:   0.1559E-03
 ------------------------------------------------------------------------------

      A V E R A G E S   O V E R  500000 S T E P S

 NSTEP =   500000   TIME(PS) =    1500.000  TEMP(K) =   297.56  PRESS =     1.3
 Etot   =     -5482.8118  EKtot   =      1253.5692  EPtot      =     -6736.3810
 BOND   =         1.6339  ANGLE   =         1.8119  DIHED      =         0.3002
 1-4 NB =         0.0000  1-4 EEL =         3.0558  VDWAALS    =      1009.8528
 EELEC  =     -7753.0357  EHBOND  =         0.0000  RESTRAINT  =         0.0000
 EKCMT  =       625.7947  VIRIAL  =       625.2161  VOLUME     =     21387.8315
                                                    Density    =         0.9858
 DV/DL  =         5.5974
 Ewald error estimate:   0.2066E-03
 ------------------------------------------------------------------------------

      R M S  F L U C T U A T I O N S

 NSTEP =   500000   TIME(PS) =    1500.000  TEMP(K) =     6.44  PRESS =   391.5
 Etot   =        47.0911  EKtot   =        27.1457  EPtot      =        38.0422
 BOND   =         1.0445  ANGLE   =         1.0304  DIHED      =         0.3027
 1-4 NB =         0.0000  1-4 EEL =         0.0939  VDWAALS    =        38.1550
 EELEC  =        60.1162  EHBOND  =         0.0000  RESTRAINT  =         0.0000
 EKCMT  =        18.9882  VIRIAL  =       180.1870  VOLUME     =        88.9578
                                                    Density    =         0.0041
 DV/DL  =         3.6267
 Ewald error estimate:   0.1559E-03
 ------------------------------------------------------------------------------

      DV/DL, AVERAGES OVER  500000 STEPS

 NSTEP =   500000   TIME(PS) =    1500.000  TEMP(K) =     6.44  PRESS =     0.0
 Etot   =         0.0000  EKtot   =         0.0000  EPtot      =         5.5974
 BOND   =         0.0000  ANGLE   =         0.0000  DIHED      =         0.0000
 1-4 NB =         0.0000  1-4 EEL =        -3.8198  VDWAALS    =         0.0000
 EELEC  =         9.4172  EHBOND  =         0.0000  RESTRAINT  =         0.0000
 EKCMT  =         0.0000  VIRIAL  =         0.0000  VOLUME     =         0.0000
                                                    Density    =         0.0000
 DV/DL  =         5.5974
 Ewald error estimate:   0.0000E+00
 ------------------------------------------------------------------------------
