-------------------------------------------------------
          Amber 14 SANDER                              2014
          -------------------------------------------------------

  [-O]verwriting output

File Assignments:

 Here is the input file:

MD simulation
 &cntrl
   imin = 0, nstlim = 500000, irest = 1, ntx = 5, dt = 0.001,
   ntt = 3, temp0 = 298.0, gamma_ln = 2.0, ig = -1,
   ntp = 1, pres0 = 1.01325, taup = 2.0,
   ntb = 2,
   ioutfm = 1, iwrap = 1,
   ntwe = 10000, ntwx = 10000, ntpr = 10000, ntwr = 50000, ntave = 50000,

   ntc = 2, ntf = 1,
   noshakemask = ':1,2',

   icfe = 1, ifsc = 0, clambda = 0.2, scalpha = 0.5, scbeta = 12.0,
   logdvdl = 1,
   ifmbar = 1, bar_intervall = 1000, bar_l_min = 0.0, bar_l_max = 1.0,
   bar_l_incr = 0.1,
   timask1 = ':1', timask2 = ':2'
 /
 &ewald
 /

Note: ig = -1. Setting random seed to   790375 based on wallclock time in
      microseconds and disabling the synchronization of random numbers
      between tasks to improve performance.

--------------------------------------------------------------------------------
   1.  RESOURCE   USE:
--------------------------------------------------------------------------------

 getting new box info from bottom of inpcrd
 NATOM  =    2121 NTYPES =       6 NBONH =    2117 MBONA  =       2
 NTHETH =      14 MTHETA =       0 NPHIH =       6 MPHIA  =       0
 NHPARM =       0 NPARM  =       0 NNB   =    2844 NRES   =     705
 NBONA  =       2 NTHETA =       0 NPHIA =       0 NUMBND =       5
 NUMANG =       3 NPTRA  =       1 NATYP =       6 NPHB   =       1
 IFBOX  =       1 NMXRS  =       6 IFCAP =       0 NEXTRA =       0
 NCOPY  =       0

     BOX TYPE: RECTILINEAR

--------------------------------------------------------------------------------
   2.  CONTROL  DATA  FOR  THE  RUN
--------------------------------------------------------------------------------

L0

General flags:
     imin    =       0, nmropt  =       0

Nature and format of input:
     ntx     =       5, irest   =       1, ntrx    =       1

Nature and format of output:
     ntxo    =       1, ntpr    =   10000, ntrx    =       1, ntwr    =   50000
     iwrap   =       1, ntwx    =   10000, ntwv    =       0, ntwe    =   10000
     ioutfm  =       1, ntwprt  =       0, idecomp =       0, rbornstat=      0

Potential function:
     ntf     =       1, ntb     =       2, igb     =       0, nsnb    =      25
     ipol    =       0, gbsa    =       0, iesp    =       0
     dielc   =   1.00000, cut     =   8.00000, intdiel =   1.00000

Frozen or restrained atoms:
     ibelly  =       0, ntr     =       0

Molecular dynamics:
     nstlim  =    500000, nscm    =      1000, nrespa  =         1
     t       =   0.00000, dt      =   0.00100, vlimit  =  20.00000

Langevin dynamics temperature regulation:
     ig      =  790375
     temp0   = 298.00000, tempi   =   0.00000, gamma_ln=   2.00000

Pressure regulation:
     ntp     =       1
     pres0   =   1.01325, comp    =  44.60000, taup    =   2.00000

SHAKE:
     ntc     =       2, jfastw  =       0
     tol     =   0.00001

Free energy options:
     icfe    =       1, ifsc    =       0, klambda =       1
     clambda =  0.2000, scalpha =  0.5000, scbeta  = 12.0000
     sceeorder =       2
     dynlmb =  0.0000 logdvdl =       1

FEP MBAR options:
     ifmbar  =       1,  bar_intervall =     1000
     bar_l_min =0.0000,  bar_l_max =1.0000,  bar_l_incr =0.1000

Ewald parameters:
     verbose =       0, ew_type =       0, nbflag  =       1, use_pme =       1
     vdwmeth =       1, eedmeth =       1, netfrc  =       1
     Box X =   28.068   Box Y =   27.689   Box Z =   27.309
     Alpha =   90.000   Beta  =   90.000   Gamma =   90.000
     NFFT1 =   30       NFFT2 =   30       NFFT3 =   30
     Cutoff=    8.000   Tol   =0.100E-04
     Ewald Coefficient =  0.34864
     Interpolation order =    4

     TI Mask 1 :1; matches      6 atoms
     TI Mask 2 :2; matches      6 atoms
     TI region 1:    2115 atoms
     TI region 2:    2115 atoms

    MBAR - lambda values considered:
      11 total:  0.0000 0.1000 0.2000 0.3000 0.4000 0.5000 0.6000 0.7000 0.8000 0.9000 1.0000
    Extra energies will be computed    500 times.
     Checking for mismatched coordinates.
 Noshake mask :1,2; matches      12 atoms.

--------------------------------------------------------------------------------
   3.  ATOMIC COORDINATES AND VELOCITIES
--------------------------------------------------------------------------------

L0
 begin time read from input coords =   500.000 ps

 Number of triangulated 3-point waters found:      703
   Removing shake constraints from O2    L0    1 -- H6    L0    1
   Removing shake constraints from C1    L0    1 -- H3    L0    1
   Removing shake constraints from C1    L0    1 -- H4    L0    1
   Removing shake constraints from C1    L0    1 -- H5    L0    1
   Removing shake constraints from O2    INT   2 -- H6    INT   2
   Removing shake constraints from C1    INT   2 -- H3    INT   2
   Removing shake constraints from C1    INT   2 -- H4    INT   2
   Removing shake constraints from C1    INT   2 -- H5    INT   2
 Number of shake restraints removed:        8

     Sum of charges for TI region  1 =   0.00000000
     Forcing neutrality...

     Sum of charges for TI region  2 =   0.00000000
     Forcing neutrality...

--------------------------------------------------------------------------------
   4.  RESULTS
 NSTEP =    10000   TIME(PS) =     510.000  TEMP(K) =   293.19  PRESS =  -473.2
 Etot   =     -5488.1218  EKtot   =      1235.1745  EPtot      =     -6723.2963
 BOND   =         2.0982  ANGLE   =         0.6616  DIHED      =         0.4272
 1-4 NB =         0.0000  1-4 EEL =         3.1029  VDWAALS    =       964.0675
 EELEC  =     -7693.6537  EHBOND  =         0.0000  RESTRAINT  =         0.0000
 EKCMT  =       607.8923  VIRIAL  =       825.7587  VOLUME     =     21322.5389
                                                    Density    =         0.9888
 DV/DL  =        13.9464
 Ewald error estimate:   0.1319E-03
 ------------------------------------------------------------------------------

      A V E R A G E S   O V E R   50000 S T E P S

 NSTEP =    50000   TIME(PS) =     550.000  TEMP(K) =   298.65  PRESS =     5.7
 Etot   =     -5471.9889  EKtot   =      1258.1543  EPtot      =     -6730.1432
 BOND   =         1.4338  ANGLE   =         1.7526  DIHED      =         0.3144
 1-4 NB =         0.0000  1-4 EEL =         3.0557  VDWAALS    =      1005.8941
 EELEC  =     -7742.5938  EHBOND  =         0.0000  RESTRAINT  =         0.0000
 EKCMT  =       629.0090  VIRIAL  =       626.4012  VOLUME     =     21365.4280
                                                    Density    =         0.9869
 DV/DL  =         4.9629
 Ewald error estimate:   0.1971E-03
 ------------------------------------------------------------------------------

      R M S  F L U C T U A T I O N S

 NSTEP =    50000   TIME(PS) =     550.000  TEMP(K) =     6.03  PRESS =   387.5
 Etot   =        41.3928  EKtot   =        25.4004  EPtot      =        35.7778
 BOND   =         0.8853  ANGLE   =         1.0144  DIHED      =         0.3100
 1-4 NB =         0.0000  1-4 EEL =         0.0876  VDWAALS    =        37.6912
 EELEC  =        57.5000  EHBOND  =         0.0000  RESTRAINT  =         0.0000
 EKCMT  =        18.5025  VIRIAL  =       179.7976  VOLUME     =        91.3145
                                                    Density    =         0.0042
 DV/DL  =         3.4398
 Ewald error estimate:   0.1516E-03
 ------------------------------------------------------------------------------

      A V E R A G E S   O V E R   50000 S T E P S

 NSTEP =    50000   TIME(PS) =     550.000  TEMP(K) =   298.65  PRESS =     5.7
 Etot   =     -5471.9889  EKtot   =      1258.1543  EPtot      =     -6730.1432
 BOND   =         1.4338  ANGLE   =         1.7526  DIHED      =         0.3144
 1-4 NB =         0.0000  1-4 EEL =         3.0557  VDWAALS    =      1005.8941
 EELEC  =     -7742.5938  EHBOND  =         0.0000  RESTRAINT  =         0.0000
 EKCMT  =       629.0090  VIRIAL  =       626.4012  VOLUME     =     21365.4280
                                                    Density    =         0.9869
 DV/DL  =         4.9629
 Ewald error estimate:   0.1971E-03
 ------------------------------------------------------------------------------

      R M S  F L U C T U A T I O N S

 NSTEP =    50000   TIME(PS) =     550.000  TEMP(K) =     6.03  PRESS =   387.5
 Etot   =        41.3928  EKtot   =        25.4004  EPtot      =        35.7778
 BOND   =         0.8853  ANGLE   =         1.0144  DIHED      =         0.3100
 1-4 NB =         0.0000  1-4 EEL =         0.0876  VDWAALS    =        37.6912
 EELEC  =        57.5000  EHBOND  =         0.0000  RESTRAINT  =         0.0000
 EKCMT  =        18.5025  VIRIAL  =       179.7976  VOLUME     =        91.3145
                                                    Density    =         0.0042
 DV/DL  =         3.4398
 Ewald error estimate:   0.1516E-03
 ------------------------------------------------------------------------------

      DV/DL, AVERAGES OVER   50000 STEPS

 NSTEP =    50000   TIME(PS) =     550.000  TEMP(K) =     6.03  PRESS =     0.0
 Etot   =         0.0000  EKtot   =         0.0000  EPtot      =         4.9629
 BOND   =         0.0000  ANGLE   =         0.0000  DIHED      =         0.0000
 1-4 NB =         0.0000  1-4 EEL =        -3.8197  VDWAALS    =         0.0000
 EELEC  =         8.7826  EHBOND  =         0.0000  RESTRAINT  =         0.0000
 EKCMT  =         0.0000  VIRIAL  =         0.0000  VOLUME     =         0.0000
                                                    Density    =         0.0000
 DV/DL  =         4.9629
 Ewald error estimate:   0.0000E+00
 ------------------------------------------------------------------------------

      A V E R A G E S   O V E R   50000 S T E P S

 NSTEP =   100000   TIME(PS) =     600.000  TEMP(K) =   297.44  PRESS =     6.2
 Etot   =     -5487.1663  EKtot   =      1253.0805  EPtot      =     -6740.2467
 BOND   =         1.6494  ANGLE   =         2.0022  DIHED      =         0.3155
 1-4 NB =         0.0000  1-4 EEL =         3.0548  VDWAALS    =      1010.2563
 EELEC  =     -7757.5250  EHBOND  =         0.0000  RESTRAINT  =         0.0000
 EKCMT  =       625.1360  VIRIAL  =       622.2533  VOLUME     =     21371.3575
                                                    Density    =         0.9866
 DV/DL  =         5.7544
 Ewald error estimate:   0.2158E-03
 ------------------------------------------------------------------------------

      R M S  F L U C T U A T I O N S

 NSTEP =   100000   TIME(PS) =     600.000  TEMP(K) =     6.35  PRESS =   380.5
 Etot   =        48.3323  EKtot   =        26.7594  EPtot      =        40.6440
 BOND   =         1.0234  ANGLE   =         1.1076  DIHED      =         0.3072
 1-4 NB =         0.0000  1-4 EEL =         0.0936  VDWAALS    =        37.1952
 EELEC  =        61.5135  EHBOND  =         0.0000  RESTRAINT  =         0.0000
 EKCMT  =        18.7066  VIRIAL  =       175.8070  VOLUME     =        85.2528
                                                    Density    =         0.0039
 DV/DL  =         3.6018
 Ewald error estimate:   0.1641E-03
 ------------------------------------------------------------------------------

      A V E R A G E S   O V E R   50000 S T E P S

 NSTEP =   100000   TIME(PS) =     600.000  TEMP(K) =   297.44  PRESS =     6.2
 Etot   =     -5487.1663  EKtot   =      1253.0805  EPtot      =     -6740.2467
 BOND   =         1.6494  ANGLE   =         2.0022  DIHED      =         0.3155
 1-4 NB =         0.0000  1-4 EEL =         3.0548  VDWAALS    =      1010.2563
 EELEC  =     -7757.5250  EHBOND  =         0.0000  RESTRAINT  =         0.0000
 EKCMT  =       625.1360  VIRIAL  =       622.2533  VOLUME     =     21371.3575
                                                    Density    =         0.9866
 DV/DL  =         5.7544
 Ewald error estimate:   0.2158E-03
 ------------------------------------------------------------------------------

      R M S  F L U C T U A T I O N S

 NSTEP =   100000   TIME(PS) =     600.000  TEMP(K) =     6.35  PRESS =   380.5
 Etot   =        48.3323  EKtot   =        26.7594  EPtot      =        40.6440
 BOND   =         1.0234  ANGLE   =         1.1076  DIHED      =         0.3072
 1-4 NB =         0.0000  1-4 EEL =         0.0936  VDWAALS    =        37.1952
 EELEC  =        61.5135  EHBOND  =         0.0000  RESTRAINT  =         0.0000
 EKCMT  =        18.7066  VIRIAL  =       175.8070  VOLUME     =        85.2528
                                                    Density    =         0.0039
 DV/DL  =         3.6018
 Ewald error estimate:   0.1641E-03
 ------------------------------------------------------------------------------

      DV/DL, AVERAGES OVER   50000 STEPS

 NSTEP =   100000   TIME(PS) =     600.000  TEMP(K) =     6.35  PRESS =     0.0
 Etot   =         0.0000  EKtot   =         0.0000  EPtot      =         5.7544
 BOND   =         0.0000  ANGLE   =         0.0000  DIHED      =         0.0000
 1-4 NB =         0.0000  1-4 EEL =        -3.8185  VDWAALS    =         0.0000
 EELEC  =         9.5730  EHBOND  =         0.0000  RESTRAINT  =         0.0000
 EKCMT  =         0.0000  VIRIAL  =         0.0000  VOLUME     =         0.0000
                                                    Density    =         0.0000
 DV/DL  =         5.7544
 Ewald error estimate:   0.0000E+00
 ------------------------------------------------------------------------------

      A V E R A G E S   O V E R   50000 S T E P S

 NSTEP =   500000   TIME(PS) =    1000.000  TEMP(K) =   297.20  PRESS =    -1.4
 Etot   =     -5486.7162  EKtot   =      1252.0383  EPtot      =     -6738.7546
 BOND   =         1.6815  ANGLE   =         1.7869  DIHED      =         0.3101
 1-4 NB =         0.0000  1-4 EEL =         3.0554  VDWAALS    =      1009.4387
 EELEC  =     -7755.0272  EHBOND  =         0.0000  RESTRAINT  =         0.0000
 EKCMT  =       625.2028  VIRIAL  =       625.8553  VOLUME     =     21371.9342
                                                    Density    =         0.9866
 DV/DL  =         5.5247
 Ewald error estimate:   0.2050E-03
 ------------------------------------------------------------------------------

      R M S  F L U C T U A T I O N S

 NSTEP =   500000   TIME(PS) =    1000.000  TEMP(K) =     6.30  PRESS =   407.5
 Etot   =        44.0835  EKtot   =        26.5329  EPtot      =        36.2887
 BOND   =         1.0619  ANGLE   =         1.0365  DIHED      =         0.3119
 1-4 NB =         0.0000  1-4 EEL =         0.0919  VDWAALS    =        39.7884
 EELEC  =        60.0068  EHBOND  =         0.0000  RESTRAINT  =         0.0000
 EKCMT  =        19.0398  VIRIAL  =       187.9214  VOLUME     =        87.3200
                                                    Density    =         0.0040
 DV/DL  =         3.6359
 Ewald error estimate:   0.1543E-03
 ------------------------------------------------------------------------------

      A V E R A G E S   O V E R   50000 S T E P S

 NSTEP =   500000   TIME(PS) =    1000.000  TEMP(K) =   297.20  PRESS =    -1.4
 Etot   =     -5486.7162  EKtot   =      1252.0383  EPtot      =     -6738.7546
 BOND   =         1.6815  ANGLE   =         1.7869  DIHED      =         0.3101
 1-4 NB =         0.0000  1-4 EEL =         3.0554  VDWAALS    =      1009.4387
 EELEC  =     -7755.0272  EHBOND  =         0.0000  RESTRAINT  =         0.0000
 EKCMT  =       625.2028  VIRIAL  =       625.8553  VOLUME     =     21371.9342
                                                    Density    =         0.9866
 DV/DL  =         5.5247
 Ewald error estimate:   0.2050E-03
 ------------------------------------------------------------------------------

      R M S  F L U C T U A T I O N S

 NSTEP =   500000   TIME(PS) =    1000.000  TEMP(K) =     6.30  PRESS =   407.5
 Etot   =        44.0835  EKtot   =        26.5329  EPtot      =        36.2887
 BOND   =         1.0619  ANGLE   =         1.0365  DIHED      =         0.3119
 1-4 NB =         0.0000  1-4 EEL =         0.0919  VDWAALS    =        39.7884
 EELEC  =        60.0068  EHBOND  =         0.0000  RESTRAINT  =         0.0000
 EKCMT  =        19.0398  VIRIAL  =       187.9214  VOLUME     =        87.3200
                                                    Density    =         0.0040
 DV/DL  =         3.6359
 Ewald error estimate:   0.1543E-03
 ------------------------------------------------------------------------------

      DV/DL, AVERAGES OVER   50000 STEPS

 NSTEP =   500000   TIME(PS) =    1000.000  TEMP(K) =     6.30  PRESS =     0.0
 Etot   =         0.0000  EKtot   =         0.0000  EPtot      =         5.5247
 BOND   =         0.0000  ANGLE   =         0.0000  DIHED      =         0.0000
 1-4 NB =         0.0000  1-4 EEL =        -3.8193  VDWAALS    =         0.0000
 EELEC  =         9.3439  EHBOND  =         0.0000  RESTRAINT  =         0.0000
 EKCMT  =         0.0000  VIRIAL  =         0.0000  VOLUME     =         0.0000
                                                    Density    =         0.0000
 DV/DL  =         5.5247
 Ewald error estimate:   0.0000E+00
 ------------------------------------------------------------------------------

      A V E R A G E S   O V E R  500000 S T E P S

 NSTEP =   500000   TIME(PS) =    1000.000  TEMP(K) =   297.74  PRESS =     1.3
 Etot   =     -5479.9778  EKtot   =      1254.3317  EPtot      =     -6734.3095
 BOND   =         1.5942  ANGLE   =         1.8374  DIHED      =         0.3089
 1-4 NB =         0.0000  1-4 EEL =         3.0552  VDWAALS    =      1008.5948
 EELEC  =     -7749.7001  EHBOND  =         0.0000  RESTRAINT  =         0.0000
 EKCMT  =       626.0198  VIRIAL  =       625.4041  VOLUME     =     21383.2055
                                                    Density    =         0.9861
 DV/DL  =         5.6583
 Ewald error estimate:   0.2063E-03
 ------------------------------------------------------------------------------

      R M S  F L U C T U A T I O N S

 NSTEP =   500000   TIME(PS) =    1000.000  TEMP(K) =     6.39  PRESS =   386.7
 Etot   =        47.4527  EKtot   =        26.9155  EPtot      =        38.7534
 BOND   =         1.0191  ANGLE   =         1.0523  DIHED      =         0.3076
 1-4 NB =         0.0000  1-4 EEL =         0.0917  VDWAALS    =        38.5885
 EELEC  =        61.9973  EHBOND  =         0.0000  RESTRAINT  =         0.0000
 EKCMT  =        19.1383  VIRIAL  =       178.6286  VOLUME     =        90.2436
                                                    Density    =         0.0042
 DV/DL  =         3.5912
 Ewald error estimate:   0.1562E-03
 ------------------------------------------------------------------------------

      A V E R A G E S   O V E R  500000 S T E P S

 NSTEP =   500000   TIME(PS) =    1000.000  TEMP(K) =   297.74  PRESS =     1.3
 Etot   =     -5479.9778  EKtot   =      1254.3317  EPtot      =     -6734.3095
 BOND   =         1.5942  ANGLE   =         1.8374  DIHED      =         0.3089
 1-4 NB =         0.0000  1-4 EEL =         3.0552  VDWAALS    =      1008.5948
 EELEC  =     -7749.7001  EHBOND  =         0.0000  RESTRAINT  =         0.0000
 EKCMT  =       626.0198  VIRIAL  =       625.4041  VOLUME     =     21383.2055
                                                    Density    =         0.9861
 DV/DL  =         5.6583
 Ewald error estimate:   0.2063E-03
 ------------------------------------------------------------------------------

      R M S  F L U C T U A T I O N S

 NSTEP =   500000   TIME(PS) =    1000.000  TEMP(K) =     6.39  PRESS =   386.7
 Etot   =        47.4527  EKtot   =        26.9155  EPtot      =        38.7534
 BOND   =         1.0191  ANGLE   =         1.0523  DIHED      =         0.3076
 1-4 NB =         0.0000  1-4 EEL =         0.0917  VDWAALS    =        38.5885
 EELEC  =        61.9973  EHBOND  =         0.0000  RESTRAINT  =         0.0000
 EKCMT  =        19.1383  VIRIAL  =       178.6286  VOLUME     =        90.2436
                                                    Density    =         0.0042
 DV/DL  =         3.5912
 Ewald error estimate:   0.1562E-03
 ------------------------------------------------------------------------------

      DV/DL, AVERAGES OVER  500000 STEPS

 NSTEP =   500000   TIME(PS) =    1000.000  TEMP(K) =     6.39  PRESS =     0.0
 Etot   =         0.0000  EKtot   =         0.0000  EPtot      =         5.6583
 BOND   =         0.0000  ANGLE   =         0.0000  DIHED      =         0.0000
 1-4 NB =         0.0000  1-4 EEL =        -3.8191  VDWAALS    =         0.0000
 EELEC  =         9.4774  EHBOND  =         0.0000  RESTRAINT  =         0.0000
 EKCMT  =         0.0000  VIRIAL  =         0.0000  VOLUME     =         0.0000
                                                    Density    =         0.0000
 DV/DL  =         5.6583
 Ewald error estimate:   0.0000E+00
 ------------------------------------------------------------------------------
