-------------------------------------------------------
          Amber 14 SANDER                              2014
          -------------------------------------------------------

  [-O]verwriting output

File Assignments:

 Here is the input file:

MD simulation
 &cntrl
   imin = 0, nstlim = 500000, irest = 1, ntx = 5, dt = 0.001,
   ntt = 3, temp0 = 298.0, gamma_ln = 2.0, ig = -1,
   ntp = 1, pres0 = 1.01325, taup = 2.0,
   ntb = 2,
   ioutfm = 1, iwrap = 1,
   ntwe = 10000, ntwx = 10000, ntpr = 10000, ntwr = 50000, ntave = 50000,

   ntc = 2, ntf = 1,
   noshakemask = ':1,2',

   icfe = 1, ifsc = 0, clambda = 0.6, scalpha = 0.5, scbeta = 12.0,
   logdvdl = 1,
   ifmbar = 1, bar_intervall = 1000, bar_l_min = 0.0, bar_l_max = 1.0,
   bar_l_incr = 0.1,
   timask1 = ':1', timask2 = ':2'
 /
 &ewald
 /

Note: ig = -1. Setting random seed to   807835 based on wallclock time in
      microseconds and disabling the synchronization of random numbers
      between tasks to improve performance.

--------------------------------------------------------------------------------
   1.  RESOURCE   USE:
--------------------------------------------------------------------------------

 getting new box info from bottom of inpcrd
 NATOM  =    2121 NTYPES =       6 NBONH =    2117 MBONA  =       2
 NTHETH =      14 MTHETA =       0 NPHIH =       6 MPHIA  =       0
 NHPARM =       0 NPARM  =       0 NNB   =    2844 NRES   =     705
 NBONA  =       2 NTHETA =       0 NPHIA =       0 NUMBND =       5
 NUMANG =       3 NPTRA  =       1 NATYP =       6 NPHB   =       1
 IFBOX  =       1 NMXRS  =       6 IFCAP =       0 NEXTRA =       0
 NCOPY  =       0

     BOX TYPE: RECTILINEAR

--------------------------------------------------------------------------------
   2.  CONTROL  DATA  FOR  THE  RUN
--------------------------------------------------------------------------------

L0

General flags:
     imin    =       0, nmropt  =       0

Nature and format of input:
     ntx     =       5, irest   =       1, ntrx    =       1

Nature and format of output:
     ntxo    =       1, ntpr    =   10000, ntrx    =       1, ntwr    =   50000
     iwrap   =       1, ntwx    =   10000, ntwv    =       0, ntwe    =   10000
     ioutfm  =       1, ntwprt  =       0, idecomp =       0, rbornstat=      0

Potential function:
     ntf     =       1, ntb     =       2, igb     =       0, nsnb    =      25
     ipol    =       0, gbsa    =       0, iesp    =       0
     dielc   =   1.00000, cut     =   8.00000, intdiel =   1.00000

Frozen or restrained atoms:
     ibelly  =       0, ntr     =       0

Molecular dynamics:
     nstlim  =    500000, nscm    =      1000, nrespa  =         1
     t       =   0.00000, dt      =   0.00100, vlimit  =  20.00000

Langevin dynamics temperature regulation:
     ig      =  807835
     temp0   = 298.00000, tempi   =   0.00000, gamma_ln=   2.00000

Pressure regulation:
     ntp     =       1
     pres0   =   1.01325, comp    =  44.60000, taup    =   2.00000

SHAKE:
     ntc     =       2, jfastw  =       0
     tol     =   0.00001

Free energy options:
     icfe    =       1, ifsc    =       0, klambda =       1
     clambda =  0.6000, scalpha =  0.5000, scbeta  = 12.0000
     sceeorder =       2
     dynlmb =  0.0000 logdvdl =       1

FEP MBAR options:
     ifmbar  =       1,  bar_intervall =     1000
     bar_l_min =0.0000,  bar_l_max =1.0000,  bar_l_incr =0.1000

Ewald parameters:
     verbose =       0, ew_type =       0, nbflag  =       1, use_pme =       1
     vdwmeth =       1, eedmeth =       1, netfrc  =       1
     Box X =   28.077   Box Y =   27.698   Box Z =   27.318
     Alpha =   90.000   Beta  =   90.000   Gamma =   90.000
     NFFT1 =   30       NFFT2 =   30       NFFT3 =   30
     Cutoff=    8.000   Tol   =0.100E-04
     Ewald Coefficient =  0.34864
     Interpolation order =    4

     TI Mask 1 :1; matches      6 atoms
     TI Mask 2 :2; matches      6 atoms
     TI region 1:    2115 atoms
     TI region 2:    2115 atoms

    MBAR - lambda values considered:
      11 total:  0.0000 0.1000 0.2000 0.3000 0.4000 0.5000 0.6000 0.7000 0.8000 0.9000 1.0000
    Extra energies will be computed    500 times.
     Checking for mismatched coordinates.
 Noshake mask :1,2; matches      12 atoms.

--------------------------------------------------------------------------------
   3.  ATOMIC COORDINATES AND VELOCITIES
--------------------------------------------------------------------------------

L0
 begin time read from input coords =   500.000 ps

 Number of triangulated 3-point waters found:      703
   Removing shake constraints from O2    L0    1 -- H6    L0    1
   Removing shake constraints from C1    L0    1 -- H3    L0    1
   Removing shake constraints from C1    L0    1 -- H4    L0    1
   Removing shake constraints from C1    L0    1 -- H5    L0    1
   Removing shake constraints from O2    INT   2 -- H6    INT   2
   Removing shake constraints from C1    INT   2 -- H3    INT   2
   Removing shake constraints from C1    INT   2 -- H4    INT   2
   Removing shake constraints from C1    INT   2 -- H5    INT   2
 Number of shake restraints removed:        8

     Sum of charges for TI region  1 =   0.00000000
     Forcing neutrality...

     Sum of charges for TI region  2 =   0.00000000
     Forcing neutrality...

--------------------------------------------------------------------------------
   4.  RESULTS
 NSTEP =    10000   TIME(PS) =     510.000  TEMP(K) =   303.98  PRESS =  -123.9
 Etot   =     -5365.6902  EKtot   =      1280.6391  EPtot      =     -6646.3293
 BOND   =         0.5653  ANGLE   =         2.2978  DIHED      =         0.0037
 1-4 NB =         0.0000  1-4 EEL =         1.5120  VDWAALS    =       960.6720
 EELEC  =     -7611.3803  EHBOND  =         0.0000  RESTRAINT  =         0.0000
 EKCMT  =       655.6290  VIRIAL  =       712.8115  VOLUME     =     21370.7387
                                                    Density    =         0.9866
 DV/DL  =        -1.3656
 Ewald error estimate:   0.3217E-04
 ------------------------------------------------------------------------------

      A V E R A G E S   O V E R   50000 S T E P S

 NSTEP =    50000   TIME(PS) =     550.000  TEMP(K) =   298.13  PRESS =     4.6
 Etot   =     -5474.1151  EKtot   =      1255.9804  EPtot      =     -6730.0955
 BOND   =         1.6654  ANGLE   =         1.9227  DIHED      =         0.3071
 1-4 NB =         0.0000  1-4 EEL =         1.5296  VDWAALS    =      1004.3437
 EELEC  =     -7739.8641  EHBOND  =         0.0000  RESTRAINT  =         0.0000
 EKCMT  =       626.1149  VIRIAL  =       624.0194  VOLUME     =     21360.6167
                                                    Density    =         0.9871
 DV/DL  =        -0.7328
 Ewald error estimate:   0.2013E-03
 ------------------------------------------------------------------------------

      R M S  F L U C T U A T I O N S

 NSTEP =    50000   TIME(PS) =     550.000  TEMP(K) =     6.43  PRESS =   396.4
 Etot   =        43.1510  EKtot   =        27.0991  EPtot      =        35.9607
 BOND   =         1.0530  ANGLE   =         1.1340  DIHED      =         0.3058
 1-4 NB =         0.0000  1-4 EEL =         0.0462  VDWAALS    =        38.1990
 EELEC  =        58.5935  EHBOND  =         0.0000  RESTRAINT  =         0.0000
 EKCMT  =        19.1670  VIRIAL  =       181.2451  VOLUME     =        98.8794
                                                    Density    =         0.0046
 DV/DL  =         2.5339
 Ewald error estimate:   0.1533E-03
 ------------------------------------------------------------------------------

      A V E R A G E S   O V E R   50000 S T E P S

 NSTEP =    50000   TIME(PS) =     550.000  TEMP(K) =   298.13  PRESS =     4.6
 Etot   =     -5474.1151  EKtot   =      1255.9804  EPtot      =     -6730.0955
 BOND   =         1.6654  ANGLE   =         1.9227  DIHED      =         0.3071
 1-4 NB =         0.0000  1-4 EEL =         1.5296  VDWAALS    =      1004.3437
 EELEC  =     -7739.8641  EHBOND  =         0.0000  RESTRAINT  =         0.0000
 EKCMT  =       626.1149  VIRIAL  =       624.0194  VOLUME     =     21360.6167
                                                    Density    =         0.9871
 DV/DL  =        -0.7328
 Ewald error estimate:   0.2013E-03
 ------------------------------------------------------------------------------

      R M S  F L U C T U A T I O N S

 NSTEP =    50000   TIME(PS) =     550.000  TEMP(K) =     6.43  PRESS =   396.4
 Etot   =        43.1510  EKtot   =        27.0991  EPtot      =        35.9607
 BOND   =         1.0530  ANGLE   =         1.1340  DIHED      =         0.3058
 1-4 NB =         0.0000  1-4 EEL =         0.0462  VDWAALS    =        38.1990
 EELEC  =        58.5935  EHBOND  =         0.0000  RESTRAINT  =         0.0000
 EKCMT  =        19.1670  VIRIAL  =       181.2451  VOLUME     =        98.8794
                                                    Density    =         0.0046
 DV/DL  =         2.5339
 Ewald error estimate:   0.1533E-03
 ------------------------------------------------------------------------------

      DV/DL, AVERAGES OVER   50000 STEPS

 NSTEP =    50000   TIME(PS) =     550.000  TEMP(K) =     6.43  PRESS =     0.0
 Etot   =         0.0000  EKtot   =         0.0000  EPtot      =        -0.7328
 BOND   =         0.0000  ANGLE   =         0.0000  DIHED      =         0.0000
 1-4 NB =         0.0000  1-4 EEL =        -3.8240  VDWAALS    =         0.0000
 EELEC  =         3.0913  EHBOND  =         0.0000  RESTRAINT  =         0.0000
 EKCMT  =         0.0000  VIRIAL  =         0.0000  VOLUME     =         0.0000
                                                    Density    =         0.0000
 DV/DL  =        -0.7328
 Ewald error estimate:   0.0000E+00
 ------------------------------------------------------------------------------

      A V E R A G E S   O V E R   50000 S T E P S

 NSTEP =   100000   TIME(PS) =     600.000  TEMP(K) =   299.00  PRESS =     9.2
 Etot   =     -5456.9068  EKtot   =      1259.6429  EPtot      =     -6716.5497
 BOND   =         1.4643  ANGLE   =         1.7684  DIHED      =         0.2786
 1-4 NB =         0.0000  1-4 EEL =         1.5287  VDWAALS    =      1002.2661
 EELEC  =     -7723.8558  EHBOND  =         0.0000  RESTRAINT  =         0.0000
 EKCMT  =       628.7163  VIRIAL  =       624.4452  VOLUME     =     21411.7582
                                                    Density    =         0.9848
 DV/DL  =        -0.5758
 Ewald error estimate:   0.2021E-03
 ------------------------------------------------------------------------------

      R M S  F L U C T U A T I O N S

 NSTEP =   100000   TIME(PS) =     600.000  TEMP(K) =     6.29  PRESS =   397.9
 Etot   =        46.1379  EKtot   =        26.5015  EPtot      =        38.1512
 BOND   =         0.9713  ANGLE   =         1.0170  DIHED      =         0.2951
 1-4 NB =         0.0000  1-4 EEL =         0.0460  VDWAALS    =        40.0621
 EELEC  =        62.9992  EHBOND  =         0.0000  RESTRAINT  =         0.0000
 EKCMT  =        18.4526  VIRIAL  =       184.4567  VOLUME     =       107.4495
                                                    Density    =         0.0049
 DV/DL  =         2.3294
 Ewald error estimate:   0.1541E-03
 ------------------------------------------------------------------------------

      A V E R A G E S   O V E R   50000 S T E P S

 NSTEP =   100000   TIME(PS) =     600.000  TEMP(K) =   299.00  PRESS =     9.2
 Etot   =     -5456.9068  EKtot   =      1259.6429  EPtot      =     -6716.5497
 BOND   =         1.4643  ANGLE   =         1.7684  DIHED      =         0.2786
 1-4 NB =         0.0000  1-4 EEL =         1.5287  VDWAALS    =      1002.2661
 EELEC  =     -7723.8558  EHBOND  =         0.0000  RESTRAINT  =         0.0000
 EKCMT  =       628.7163  VIRIAL  =       624.4452  VOLUME     =     21411.7582
                                                    Density    =         0.9848
 DV/DL  =        -0.5758
 Ewald error estimate:   0.2021E-03
 ------------------------------------------------------------------------------

      R M S  F L U C T U A T I O N S

 NSTEP =   100000   TIME(PS) =     600.000  TEMP(K) =     6.29  PRESS =   397.9
 Etot   =        46.1379  EKtot   =        26.5015  EPtot      =        38.1512
 BOND   =         0.9713  ANGLE   =         1.0170  DIHED      =         0.2951
 1-4 NB =         0.0000  1-4 EEL =         0.0460  VDWAALS    =        40.0621
 EELEC  =        62.9992  EHBOND  =         0.0000  RESTRAINT  =         0.0000
 EKCMT  =        18.4526  VIRIAL  =       184.4567  VOLUME     =       107.4495
                                                    Density    =         0.0049
 DV/DL  =         2.3294
 Ewald error estimate:   0.1541E-03
 ------------------------------------------------------------------------------

      DV/DL, AVERAGES OVER   50000 STEPS

 NSTEP =   100000   TIME(PS) =     600.000  TEMP(K) =     6.29  PRESS =     0.0
 Etot   =         0.0000  EKtot   =         0.0000  EPtot      =        -0.5758
 BOND   =         0.0000  ANGLE   =         0.0000  DIHED      =         0.0000
 1-4 NB =         0.0000  1-4 EEL =        -3.8216  VDWAALS    =         0.0000
 EELEC  =         3.2458  EHBOND  =         0.0000  RESTRAINT  =         0.0000
 EKCMT  =         0.0000  VIRIAL  =         0.0000  VOLUME     =         0.0000
                                                    Density    =         0.0000
 DV/DL  =        -0.5758
 Ewald error estimate:   0.0000E+00
 ------------------------------------------------------------------------------

      A V E R A G E S   O V E R   50000 S T E P S

 NSTEP =   500000   TIME(PS) =    1000.000  TEMP(K) =   297.32  PRESS =     1.7
 Etot   =     -5488.7648  EKtot   =      1252.5807  EPtot      =     -6741.3456
 BOND   =         1.6632  ANGLE   =         1.8824  DIHED      =         0.2838
 1-4 NB =         0.0000  1-4 EEL =         1.5294  VDWAALS    =      1008.7478
 EELEC  =     -7755.4523  EHBOND  =         0.0000  RESTRAINT  =         0.0000
 EKCMT  =       623.6573  VIRIAL  =       622.8695  VOLUME     =     21346.7364
                                                    Density    =         0.9877
 DV/DL  =        -0.6224
 Ewald error estimate:   0.2113E-03
 ------------------------------------------------------------------------------

      R M S  F L U C T U A T I O N S

 NSTEP =   500000   TIME(PS) =    1000.000  TEMP(K) =     6.34  PRESS =   391.2
 Etot   =        46.9298  EKtot   =        26.7083  EPtot      =        37.7801
 BOND   =         1.0719  ANGLE   =         1.0994  DIHED      =         0.2984
 1-4 NB =         0.0000  1-4 EEL =         0.0475  VDWAALS    =        38.4572
 EELEC  =        60.5663  EHBOND  =         0.0000  RESTRAINT  =         0.0000
 EKCMT  =        18.7851  VIRIAL  =       180.3658  VOLUME     =        90.5821
                                                    Density    =         0.0042
 DV/DL  =         2.4664
 Ewald error estimate:   0.1620E-03
 ------------------------------------------------------------------------------

      A V E R A G E S   O V E R   50000 S T E P S

 NSTEP =   500000   TIME(PS) =    1000.000  TEMP(K) =   297.32  PRESS =     1.7
 Etot   =     -5488.7648  EKtot   =      1252.5807  EPtot      =     -6741.3456
 BOND   =         1.6632  ANGLE   =         1.8824  DIHED      =         0.2838
 1-4 NB =         0.0000  1-4 EEL =         1.5294  VDWAALS    =      1008.7478
 EELEC  =     -7755.4523  EHBOND  =         0.0000  RESTRAINT  =         0.0000
 EKCMT  =       623.6573  VIRIAL  =       622.8695  VOLUME     =     21346.7364
                                                    Density    =         0.9877
 DV/DL  =        -0.6224
 Ewald error estimate:   0.2113E-03
 ------------------------------------------------------------------------------

      R M S  F L U C T U A T I O N S

 NSTEP =   500000   TIME(PS) =    1000.000  TEMP(K) =     6.34  PRESS =   391.2
 Etot   =        46.9298  EKtot   =        26.7083  EPtot      =        37.7801
 BOND   =         1.0719  ANGLE   =         1.0994  DIHED      =         0.2984
 1-4 NB =         0.0000  1-4 EEL =         0.0475  VDWAALS    =        38.4572
 EELEC  =        60.5663  EHBOND  =         0.0000  RESTRAINT  =         0.0000
 EKCMT  =        18.7851  VIRIAL  =       180.3658  VOLUME     =        90.5821
                                                    Density    =         0.0042
 DV/DL  =         2.4664
 Ewald error estimate:   0.1620E-03
 ------------------------------------------------------------------------------

      DV/DL, AVERAGES OVER   50000 STEPS

 NSTEP =   500000   TIME(PS) =    1000.000  TEMP(K) =     6.34  PRESS =     0.0
 Etot   =         0.0000  EKtot   =         0.0000  EPtot      =        -0.6224
 BOND   =         0.0000  ANGLE   =         0.0000  DIHED      =         0.0000
 1-4 NB =         0.0000  1-4 EEL =        -3.8236  VDWAALS    =         0.0000
 EELEC  =         3.2012  EHBOND  =         0.0000  RESTRAINT  =         0.0000
 EKCMT  =         0.0000  VIRIAL  =         0.0000  VOLUME     =         0.0000
                                                    Density    =         0.0000
 DV/DL  =        -0.6224
 Ewald error estimate:   0.0000E+00
 ------------------------------------------------------------------------------

      A V E R A G E S   O V E R  500000 S T E P S

 NSTEP =   500000   TIME(PS) =    1000.000  TEMP(K) =   297.53  PRESS =     1.5
 Etot   =     -5482.7573  EKtot   =      1253.4334  EPtot      =     -6736.1907
 BOND   =         1.5662  ANGLE   =         1.8125  DIHED      =         0.2994
 1-4 NB =         0.0000  1-4 EEL =         1.5292  VDWAALS    =      1008.1869
 EELEC  =     -7749.5849  EHBOND  =         0.0000  RESTRAINT  =         0.0000
 EKCMT  =       625.0290  VIRIAL  =       624.3465  VOLUME     =     21373.7878
                                                    Density    =         0.9865
 DV/DL  =        -0.5822
 Ewald error estimate:   0.2046E-03
 ------------------------------------------------------------------------------

      R M S  F L U C T U A T I O N S

 NSTEP =   500000   TIME(PS) =    1000.000  TEMP(K) =     6.50  PRESS =   391.7
 Etot   =        47.7153  EKtot   =        27.3856  EPtot      =        38.4778
 BOND   =         1.0030  ANGLE   =         1.0519  DIHED      =         0.3040
 1-4 NB =         0.0000  1-4 EEL =         0.0461  VDWAALS    =        38.6304
 EELEC  =        61.7029  EHBOND  =         0.0000  RESTRAINT  =         0.0000
 EKCMT  =        19.2076  VIRIAL  =       180.4434  VOLUME     =        90.8251
                                                    Density    =         0.0042
 DV/DL  =         2.4672
 Ewald error estimate:   0.1556E-03
 ------------------------------------------------------------------------------

      A V E R A G E S   O V E R  500000 S T E P S

 NSTEP =   500000   TIME(PS) =    1000.000  TEMP(K) =   297.53  PRESS =     1.5
 Etot   =     -5482.7573  EKtot   =      1253.4334  EPtot      =     -6736.1907
 BOND   =         1.5662  ANGLE   =         1.8125  DIHED      =         0.2994
 1-4 NB =         0.0000  1-4 EEL =         1.5292  VDWAALS    =      1008.1869
 EELEC  =     -7749.5849  EHBOND  =         0.0000  RESTRAINT  =         0.0000
 EKCMT  =       625.0290  VIRIAL  =       624.3465  VOLUME     =     21373.7878
                                                    Density    =         0.9865
 DV/DL  =        -0.5822
 Ewald error estimate:   0.2046E-03
 ------------------------------------------------------------------------------

      R M S  F L U C T U A T I O N S

 NSTEP =   500000   TIME(PS) =    1000.000  TEMP(K) =     6.50  PRESS =   391.7
 Etot   =        47.7153  EKtot   =        27.3856  EPtot      =        38.4778
 BOND   =         1.0030  ANGLE   =         1.0519  DIHED      =         0.3040
 1-4 NB =         0.0000  1-4 EEL =         0.0461  VDWAALS    =        38.6304
 EELEC  =        61.7029  EHBOND  =         0.0000  RESTRAINT  =         0.0000
 EKCMT  =        19.2076  VIRIAL  =       180.4434  VOLUME     =        90.8251
                                                    Density    =         0.0042
 DV/DL  =         2.4672
 Ewald error estimate:   0.1556E-03
 ------------------------------------------------------------------------------

      DV/DL, AVERAGES OVER  500000 STEPS

 NSTEP =   500000   TIME(PS) =    1000.000  TEMP(K) =     6.50  PRESS =     0.0
 Etot   =         0.0000  EKtot   =         0.0000  EPtot      =        -0.5822
 BOND   =         0.0000  ANGLE   =         0.0000  DIHED      =         0.0000
 1-4 NB =         0.0000  1-4 EEL =        -3.8231  VDWAALS    =         0.0000
 EELEC  =         3.2409  EHBOND  =         0.0000  RESTRAINT  =         0.0000
 EKCMT  =         0.0000  VIRIAL  =         0.0000  VOLUME     =         0.0000
                                                    Density    =         0.0000
 DV/DL  =        -0.5822
 Ewald error estimate:   0.0000E+00
 ------------------------------------------------------------------------------
