-------------------------------------------------------
          Amber 14 SANDER                              2014
          -------------------------------------------------------

  [-O]verwriting output

File Assignments:

 Here is the input file:

MD simulation
 &cntrl
   imin = 0, nstlim = 500000, irest = 1, ntx = 5, dt = 0.001,
   ntt = 3, temp0 = 298.0, gamma_ln = 2.0, ig = -1,
   ntp = 1, pres0 = 1.01325, taup = 2.0,
   ntb = 2,
   ioutfm = 1, iwrap = 1,
   ntwe = 10000, ntwx = 10000, ntpr = 10000, ntwr = 50000, ntave = 50000,

   ntc = 2, ntf = 1,
   noshakemask = ':1,2',

   icfe = 1, ifsc = 0, clambda = 0.6, scalpha = 0.5, scbeta = 12.0,
   logdvdl = 1,
   ifmbar = 1, bar_intervall = 1000, bar_l_min = 0.0, bar_l_max = 1.0,
   bar_l_incr = 0.1,
   timask1 = ':1', timask2 = ':2'
 /
 &ewald
 /

Note: ig = -1. Setting random seed to   419044 based on wallclock time in
      microseconds and disabling the synchronization of random numbers
      between tasks to improve performance.

--------------------------------------------------------------------------------
   1.  RESOURCE   USE:
--------------------------------------------------------------------------------

 getting new box info from bottom of inpcrd
 NATOM  =    2121 NTYPES =       6 NBONH =    2117 MBONA  =       2
 NTHETH =      14 MTHETA =       0 NPHIH =       6 MPHIA  =       0
 NHPARM =       0 NPARM  =       0 NNB   =    2844 NRES   =     705
 NBONA  =       2 NTHETA =       0 NPHIA =       0 NUMBND =       5
 NUMANG =       3 NPTRA  =       1 NATYP =       6 NPHB   =       1
 IFBOX  =       1 NMXRS  =       6 IFCAP =       0 NEXTRA =       0
 NCOPY  =       0

     BOX TYPE: RECTILINEAR

--------------------------------------------------------------------------------
   2.  CONTROL  DATA  FOR  THE  RUN
--------------------------------------------------------------------------------

L0

General flags:
     imin    =       0, nmropt  =       0

Nature and format of input:
     ntx     =       5, irest   =       1, ntrx    =       1

Nature and format of output:
     ntxo    =       1, ntpr    =   10000, ntrx    =       1, ntwr    =   50000
     iwrap   =       1, ntwx    =   10000, ntwv    =       0, ntwe    =   10000
     ioutfm  =       1, ntwprt  =       0, idecomp =       0, rbornstat=      0

Potential function:
     ntf     =       1, ntb     =       2, igb     =       0, nsnb    =      25
     ipol    =       0, gbsa    =       0, iesp    =       0
     dielc   =   1.00000, cut     =   8.00000, intdiel =   1.00000

Frozen or restrained atoms:
     ibelly  =       0, ntr     =       0

Molecular dynamics:
     nstlim  =    500000, nscm    =      1000, nrespa  =         1
     t       =   0.00000, dt      =   0.00100, vlimit  =  20.00000

Langevin dynamics temperature regulation:
     ig      =  419044
     temp0   = 298.00000, tempi   =   0.00000, gamma_ln=   2.00000

Pressure regulation:
     ntp     =       1
     pres0   =   1.01325, comp    =  44.60000, taup    =   2.00000

SHAKE:
     ntc     =       2, jfastw  =       0
     tol     =   0.00001

Free energy options:
     icfe    =       1, ifsc    =       0, klambda =       1
     clambda =  0.6000, scalpha =  0.5000, scbeta  = 12.0000
     sceeorder =       2
     dynlmb =  0.0000 logdvdl =       1

FEP MBAR options:
     ifmbar  =       1,  bar_intervall =     1000
     bar_l_min =0.0000,  bar_l_max =1.0000,  bar_l_incr =0.1000

Ewald parameters:
     verbose =       0, ew_type =       0, nbflag  =       1, use_pme =       1
     vdwmeth =       1, eedmeth =       1, netfrc  =       1
     Box X =   28.126   Box Y =   27.746   Box Z =   27.366
     Alpha =   90.000   Beta  =   90.000   Gamma =   90.000
     NFFT1 =   30       NFFT2 =   30       NFFT3 =   30
     Cutoff=    8.000   Tol   =0.100E-04
     Ewald Coefficient =  0.34864
     Interpolation order =    4

     TI Mask 1 :1; matches      6 atoms
     TI Mask 2 :2; matches      6 atoms
     TI region 1:    2115 atoms
     TI region 2:    2115 atoms

    MBAR - lambda values considered:
      11 total:  0.0000 0.1000 0.2000 0.3000 0.4000 0.5000 0.6000 0.7000 0.8000 0.9000 1.0000
    Extra energies will be computed    500 times.
     Checking for mismatched coordinates.
 Noshake mask :1,2; matches      12 atoms.

--------------------------------------------------------------------------------
   3.  ATOMIC COORDINATES AND VELOCITIES
--------------------------------------------------------------------------------

L0
 begin time read from input coords =  1000.000 ps

 Number of triangulated 3-point waters found:      703
   Removing shake constraints from O2    L0    1 -- H6    L0    1
   Removing shake constraints from C1    L0    1 -- H3    L0    1
   Removing shake constraints from C1    L0    1 -- H4    L0    1
   Removing shake constraints from C1    L0    1 -- H5    L0    1
   Removing shake constraints from O2    INT   2 -- H6    INT   2
   Removing shake constraints from C1    INT   2 -- H3    INT   2
   Removing shake constraints from C1    INT   2 -- H4    INT   2
   Removing shake constraints from C1    INT   2 -- H5    INT   2
 Number of shake restraints removed:        8

     Sum of charges for TI region  1 =   0.00000000
     Forcing neutrality...

     Sum of charges for TI region  2 =   0.00000000
     Forcing neutrality...

--------------------------------------------------------------------------------
   4.  RESULTS
 NSTEP =    10000   TIME(PS) =    1010.000  TEMP(K) =   290.35  PRESS =   384.8
 Etot   =     -5534.9417  EKtot   =      1223.2170  EPtot      =     -6758.1587
 BOND   =         2.4137  ANGLE   =         1.1198  DIHED      =         0.0356
 1-4 NB =         0.0000  1-4 EEL =         1.5819  VDWAALS    =      1068.0502
 EELEC  =     -7831.3599  EHBOND  =         0.0000  RESTRAINT  =         0.0000
 EKCMT  =       602.9410  VIRIAL  =       425.1837  VOLUME     =     21393.7178
                                                    Density    =         0.9856
 DV/DL  =        -4.2810
 Ewald error estimate:   0.4049E-03
 ------------------------------------------------------------------------------

      A V E R A G E S   O V E R   50000 S T E P S

 NSTEP =    50000   TIME(PS) =    1050.000  TEMP(K) =   297.67  PRESS =    -1.4
 Etot   =     -5473.8108  EKtot   =      1254.0507  EPtot      =     -6727.8616
 BOND   =         1.4806  ANGLE   =         1.6954  DIHED      =         0.3061
 1-4 NB =         0.0000  1-4 EEL =         1.5291  VDWAALS    =      1004.8898
 EELEC  =     -7737.7626  EHBOND  =         0.0000  RESTRAINT  =         0.0000
 EKCMT  =       625.0763  VIRIAL  =       625.7337  VOLUME     =     21381.8318
                                                    Density    =         0.9861
 DV/DL  =        -0.4052
 Ewald error estimate:   0.2085E-03
 ------------------------------------------------------------------------------

      R M S  F L U C T U A T I O N S

 NSTEP =    50000   TIME(PS) =    1050.000  TEMP(K) =     6.35  PRESS =   391.7
 Etot   =        44.6800  EKtot   =        26.7310  EPtot      =        36.8517
 BOND   =         0.9282  ANGLE   =         0.9583  DIHED      =         0.3050
 1-4 NB =         0.0000  1-4 EEL =         0.0458  VDWAALS    =        38.7490
 EELEC  =        60.0664  EHBOND  =         0.0000  RESTRAINT  =         0.0000
 EKCMT  =        19.2587  VIRIAL  =       180.1697  VOLUME     =        85.5453
                                                    Density    =         0.0039
 DV/DL  =         2.6060
 Ewald error estimate:   0.1570E-03
 ------------------------------------------------------------------------------

      A V E R A G E S   O V E R   50000 S T E P S

 NSTEP =    50000   TIME(PS) =    1050.000  TEMP(K) =   297.67  PRESS =    -1.4
 Etot   =     -5473.8108  EKtot   =      1254.0507  EPtot      =     -6727.8616
 BOND   =         1.4806  ANGLE   =         1.6954  DIHED      =         0.3061
 1-4 NB =         0.0000  1-4 EEL =         1.5291  VDWAALS    =      1004.8898
 EELEC  =     -7737.7626  EHBOND  =         0.0000  RESTRAINT  =         0.0000
 EKCMT  =       625.0763  VIRIAL  =       625.7337  VOLUME     =     21381.8318
                                                    Density    =         0.9861
 DV/DL  =        -0.4052
 Ewald error estimate:   0.2085E-03
 ------------------------------------------------------------------------------

      R M S  F L U C T U A T I O N S

 NSTEP =    50000   TIME(PS) =    1050.000  TEMP(K) =     6.35  PRESS =   391.7
 Etot   =        44.6800  EKtot   =        26.7310  EPtot      =        36.8517
 BOND   =         0.9282  ANGLE   =         0.9583  DIHED      =         0.3050
 1-4 NB =         0.0000  1-4 EEL =         0.0458  VDWAALS    =        38.7490
 EELEC  =        60.0664  EHBOND  =         0.0000  RESTRAINT  =         0.0000
 EKCMT  =        19.2587  VIRIAL  =       180.1697  VOLUME     =        85.5453
                                                    Density    =         0.0039
 DV/DL  =         2.6060
 Ewald error estimate:   0.1570E-03
 ------------------------------------------------------------------------------

      DV/DL, AVERAGES OVER   50000 STEPS

 NSTEP =    50000   TIME(PS) =    1050.000  TEMP(K) =     6.35  PRESS =     0.0
 Etot   =         0.0000  EKtot   =         0.0000  EPtot      =        -0.4052
 BOND   =         0.0000  ANGLE   =         0.0000  DIHED      =         0.0000
 1-4 NB =         0.0000  1-4 EEL =        -3.8228  VDWAALS    =         0.0000
 EELEC  =         3.4176  EHBOND  =         0.0000  RESTRAINT  =         0.0000
 EKCMT  =         0.0000  VIRIAL  =         0.0000  VOLUME     =         0.0000
                                                    Density    =         0.0000
 DV/DL  =        -0.4052
 Ewald error estimate:   0.0000E+00
 ------------------------------------------------------------------------------

      A V E R A G E S   O V E R   50000 S T E P S

 NSTEP =   100000   TIME(PS) =    1100.000  TEMP(K) =   297.44  PRESS =    11.1
 Etot   =     -5484.8596  EKtot   =      1253.0789  EPtot      =     -6737.9385
 BOND   =         1.4812  ANGLE   =         1.7990  DIHED      =         0.3148
 1-4 NB =         0.0000  1-4 EEL =         1.5293  VDWAALS    =      1009.4414
 EELEC  =     -7752.5042  EHBOND  =         0.0000  RESTRAINT  =         0.0000
 EKCMT  =       625.3415  VIRIAL  =       620.2208  VOLUME     =     21365.2884
                                                    Density    =         0.9869
 DV/DL  =        -0.6261
 Ewald error estimate:   0.2045E-03
 ------------------------------------------------------------------------------

      R M S  F L U C T U A T I O N S

 NSTEP =   100000   TIME(PS) =    1100.000  TEMP(K) =     6.61  PRESS =   381.6
 Etot   =        55.8246  EKtot   =        27.8450  EPtot      =        44.9687
 BOND   =         0.9144  ANGLE   =         1.0240  DIHED      =         0.3062
 1-4 NB =         0.0000  1-4 EEL =         0.0441  VDWAALS    =        38.7536
 EELEC  =        68.0111  EHBOND  =         0.0000  RESTRAINT  =         0.0000
 EKCMT  =        19.3512  VIRIAL  =       177.3367  VOLUME     =        96.3082
                                                    Density    =         0.0045
 DV/DL  =         2.4796
 Ewald error estimate:   0.1558E-03
 ------------------------------------------------------------------------------

      A V E R A G E S   O V E R   50000 S T E P S

 NSTEP =   100000   TIME(PS) =    1100.000  TEMP(K) =   297.44  PRESS =    11.1
 Etot   =     -5484.8596  EKtot   =      1253.0789  EPtot      =     -6737.9385
 BOND   =         1.4812  ANGLE   =         1.7990  DIHED      =         0.3148
 1-4 NB =         0.0000  1-4 EEL =         1.5293  VDWAALS    =      1009.4414
 EELEC  =     -7752.5042  EHBOND  =         0.0000  RESTRAINT  =         0.0000
 EKCMT  =       625.3415  VIRIAL  =       620.2208  VOLUME     =     21365.2884
                                                    Density    =         0.9869
 DV/DL  =        -0.6261
 Ewald error estimate:   0.2045E-03
 ------------------------------------------------------------------------------

      R M S  F L U C T U A T I O N S

 NSTEP =   100000   TIME(PS) =    1100.000  TEMP(K) =     6.61  PRESS =   381.6
 Etot   =        55.8246  EKtot   =        27.8450  EPtot      =        44.9687
 BOND   =         0.9144  ANGLE   =         1.0240  DIHED      =         0.3062
 1-4 NB =         0.0000  1-4 EEL =         0.0441  VDWAALS    =        38.7536
 EELEC  =        68.0111  EHBOND  =         0.0000  RESTRAINT  =         0.0000
 EKCMT  =        19.3512  VIRIAL  =       177.3367  VOLUME     =        96.3082
                                                    Density    =         0.0045
 DV/DL  =         2.4796
 Ewald error estimate:   0.1558E-03
 ------------------------------------------------------------------------------

      DV/DL, AVERAGES OVER   50000 STEPS

 NSTEP =   100000   TIME(PS) =    1100.000  TEMP(K) =     6.61  PRESS =     0.0
 Etot   =         0.0000  EKtot   =         0.0000  EPtot      =        -0.6261
 BOND   =         0.0000  ANGLE   =         0.0000  DIHED      =         0.0000
 1-4 NB =         0.0000  1-4 EEL =        -3.8232  VDWAALS    =         0.0000
 EELEC  =         3.1971  EHBOND  =         0.0000  RESTRAINT  =         0.0000
 EKCMT  =         0.0000  VIRIAL  =         0.0000  VOLUME     =         0.0000
                                                    Density    =         0.0000
 DV/DL  =        -0.6261
 Ewald error estimate:   0.0000E+00
 ------------------------------------------------------------------------------

      A V E R A G E S   O V E R   50000 S T E P S

 NSTEP =   500000   TIME(PS) =    1500.000  TEMP(K) =   299.03  PRESS =     4.5
 Etot   =     -5463.8122  EKtot   =      1259.7827  EPtot      =     -6723.5949
 BOND   =         1.5397  ANGLE   =         1.8424  DIHED      =         0.3302
 1-4 NB =         0.0000  1-4 EEL =         1.5290  VDWAALS    =      1006.8617
 EELEC  =     -7735.6978  EHBOND  =         0.0000  RESTRAINT  =         0.0000
 EKCMT  =       629.5990  VIRIAL  =       627.5377  VOLUME     =     21433.6474
                                                    Density    =         0.9837
 DV/DL  =        -0.5764
 Ewald error estimate:   0.2010E-03
 ------------------------------------------------------------------------------

      R M S  F L U C T U A T I O N S

 NSTEP =   500000   TIME(PS) =    1500.000  TEMP(K) =     6.10  PRESS =   377.9
 Etot   =        39.5502  EKtot   =        25.7179  EPtot      =        34.1511
 BOND   =         0.9642  ANGLE   =         1.0801  DIHED      =         0.3134
 1-4 NB =         0.0000  1-4 EEL =         0.0452  VDWAALS    =        37.1772
 EELEC  =        56.2385  EHBOND  =         0.0000  RESTRAINT  =         0.0000
 EKCMT  =        19.2605  VIRIAL  =       174.8619  VOLUME     =        96.0087
                                                    Density    =         0.0044
 DV/DL  =         2.5235
 Ewald error estimate:   0.1505E-03
 ------------------------------------------------------------------------------

      A V E R A G E S   O V E R   50000 S T E P S

 NSTEP =   500000   TIME(PS) =    1500.000  TEMP(K) =   299.03  PRESS =     4.5
 Etot   =     -5463.8122  EKtot   =      1259.7827  EPtot      =     -6723.5949
 BOND   =         1.5397  ANGLE   =         1.8424  DIHED      =         0.3302
 1-4 NB =         0.0000  1-4 EEL =         1.5290  VDWAALS    =      1006.8617
 EELEC  =     -7735.6978  EHBOND  =         0.0000  RESTRAINT  =         0.0000
 EKCMT  =       629.5990  VIRIAL  =       627.5377  VOLUME     =     21433.6474
                                                    Density    =         0.9837
 DV/DL  =        -0.5764
 Ewald error estimate:   0.2010E-03
 ------------------------------------------------------------------------------

      R M S  F L U C T U A T I O N S

 NSTEP =   500000   TIME(PS) =    1500.000  TEMP(K) =     6.10  PRESS =   377.9
 Etot   =        39.5502  EKtot   =        25.7179  EPtot      =        34.1511
 BOND   =         0.9642  ANGLE   =         1.0801  DIHED      =         0.3134
 1-4 NB =         0.0000  1-4 EEL =         0.0452  VDWAALS    =        37.1772
 EELEC  =        56.2385  EHBOND  =         0.0000  RESTRAINT  =         0.0000
 EKCMT  =        19.2605  VIRIAL  =       174.8619  VOLUME     =        96.0087
                                                    Density    =         0.0044
 DV/DL  =         2.5235
 Ewald error estimate:   0.1505E-03
 ------------------------------------------------------------------------------

      DV/DL, AVERAGES OVER   50000 STEPS

 NSTEP =   500000   TIME(PS) =    1500.000  TEMP(K) =     6.10  PRESS =     0.0
 Etot   =         0.0000  EKtot   =         0.0000  EPtot      =        -0.5764
 BOND   =         0.0000  ANGLE   =         0.0000  DIHED      =         0.0000
 1-4 NB =         0.0000  1-4 EEL =        -3.8224  VDWAALS    =         0.0000
 EELEC  =         3.2460  EHBOND  =         0.0000  RESTRAINT  =         0.0000
 EKCMT  =         0.0000  VIRIAL  =         0.0000  VOLUME     =         0.0000
                                                    Density    =         0.0000
 DV/DL  =        -0.5764
 Ewald error estimate:   0.0000E+00
 ------------------------------------------------------------------------------

      A V E R A G E S   O V E R  500000 S T E P S

 NSTEP =   500000   TIME(PS) =    1500.000  TEMP(K) =   297.79  PRESS =     1.5
 Etot   =     -5480.2382  EKtot   =      1254.5346  EPtot      =     -6734.7728
 BOND   =         1.5441  ANGLE   =         1.8302  DIHED      =         0.3136
 1-4 NB =         0.0000  1-4 EEL =         1.5293  VDWAALS    =      1008.5261
 EELEC  =     -7748.5160  EHBOND  =         0.0000  RESTRAINT  =         0.0000
 EKCMT  =       625.6042  VIRIAL  =       624.9298  VOLUME     =     21384.1146
                                                    Density    =         0.9860
 DV/DL  =        -0.5525
 Ewald error estimate:   0.2068E-03
 ------------------------------------------------------------------------------

      R M S  F L U C T U A T I O N S

 NSTEP =   500000   TIME(PS) =    1500.000  TEMP(K) =     6.38  PRESS =   387.9
 Etot   =        46.7525  EKtot   =        26.8583  EPtot      =        38.4951
 BOND   =         0.9773  ANGLE   =         1.0812  DIHED      =         0.3090
 1-4 NB =         0.0000  1-4 EEL =         0.0465  VDWAALS    =        37.8852
 EELEC  =        60.4174  EHBOND  =         0.0000  RESTRAINT  =         0.0000
 EKCMT  =        19.3551  VIRIAL  =       179.0439  VOLUME     =        88.0839
                                                    Density    =         0.0041
 DV/DL  =         2.5251
 Ewald error estimate:   0.1549E-03
 ------------------------------------------------------------------------------

      A V E R A G E S   O V E R  500000 S T E P S

 NSTEP =   500000   TIME(PS) =    1500.000  TEMP(K) =   297.79  PRESS =     1.5
 Etot   =     -5480.2382  EKtot   =      1254.5346  EPtot      =     -6734.7728
 BOND   =         1.5441  ANGLE   =         1.8302  DIHED      =         0.3136
 1-4 NB =         0.0000  1-4 EEL =         1.5293  VDWAALS    =      1008.5261
 EELEC  =     -7748.5160  EHBOND  =         0.0000  RESTRAINT  =         0.0000
 EKCMT  =       625.6042  VIRIAL  =       624.9298  VOLUME     =     21384.1146
                                                    Density    =         0.9860
 DV/DL  =        -0.5525
 Ewald error estimate:   0.2068E-03
 ------------------------------------------------------------------------------

      R M S  F L U C T U A T I O N S

 NSTEP =   500000   TIME(PS) =    1500.000  TEMP(K) =     6.38  PRESS =   387.9
 Etot   =        46.7525  EKtot   =        26.8583  EPtot      =        38.4951
 BOND   =         0.9773  ANGLE   =         1.0812  DIHED      =         0.3090
 1-4 NB =         0.0000  1-4 EEL =         0.0465  VDWAALS    =        37.8852
 EELEC  =        60.4174  EHBOND  =         0.0000  RESTRAINT  =         0.0000
 EKCMT  =        19.3551  VIRIAL  =       179.0439  VOLUME     =        88.0839
                                                    Density    =         0.0041
 DV/DL  =         2.5251
 Ewald error estimate:   0.1549E-03
 ------------------------------------------------------------------------------

      DV/DL, AVERAGES OVER  500000 STEPS

 NSTEP =   500000   TIME(PS) =    1500.000  TEMP(K) =     6.38  PRESS =     0.0
 Etot   =         0.0000  EKtot   =         0.0000  EPtot      =        -0.5525
 BOND   =         0.0000  ANGLE   =         0.0000  DIHED      =         0.0000
 1-4 NB =         0.0000  1-4 EEL =        -3.8232  VDWAALS    =         0.0000
 EELEC  =         3.2707  EHBOND  =         0.0000  RESTRAINT  =         0.0000
 EKCMT  =         0.0000  VIRIAL  =         0.0000  VOLUME     =         0.0000
                                                    Density    =         0.0000
 DV/DL  =        -0.5525
 Ewald error estimate:   0.0000E+00
 ------------------------------------------------------------------------------
