-------------------------------------------------------
          Amber 14 SANDER                              2014
          -------------------------------------------------------

  [-O]verwriting output

File Assignments:

 Here is the input file:

MD simulation
 &cntrl
   imin = 0, nstlim = 500000, irest = 1, ntx = 5, dt = 0.001,
   ntt = 3, temp0 = 298.0, gamma_ln = 2.0, ig = -1,
   ntp = 1, pres0 = 1.01325, taup = 2.0,
   ntb = 2,
   ioutfm = 1, iwrap = 1,
   ntwe = 10000, ntwx = 10000, ntpr = 10000, ntwr = 50000, ntave = 50000,

   ntc = 2, ntf = 1,
   noshakemask = ':1,2',

   icfe = 1, ifsc = 0, clambda = 0.5, scalpha = 0.5, scbeta = 12.0,
   logdvdl = 1,
   ifmbar = 1, bar_intervall = 1000, bar_l_min = 0.0, bar_l_max = 1.0,
   bar_l_incr = 0.1,
   timask1 = ':1', timask2 = ':2'
 /
 &ewald
 /

Note: ig = -1. Setting random seed to   580259 based on wallclock time in
      microseconds and disabling the synchronization of random numbers
      between tasks to improve performance.

--------------------------------------------------------------------------------
   1.  RESOURCE   USE:
--------------------------------------------------------------------------------

 getting new box info from bottom of inpcrd
 NATOM  =    2121 NTYPES =       6 NBONH =    2117 MBONA  =       2
 NTHETH =      14 MTHETA =       0 NPHIH =       6 MPHIA  =       0
 NHPARM =       0 NPARM  =       0 NNB   =    2844 NRES   =     705
 NBONA  =       2 NTHETA =       0 NPHIA =       0 NUMBND =       5
 NUMANG =       3 NPTRA  =       1 NATYP =       6 NPHB   =       1
 IFBOX  =       1 NMXRS  =       6 IFCAP =       0 NEXTRA =       0
 NCOPY  =       0

     BOX TYPE: RECTILINEAR

--------------------------------------------------------------------------------
   2.  CONTROL  DATA  FOR  THE  RUN
--------------------------------------------------------------------------------

L0

General flags:
     imin    =       0, nmropt  =       0

Nature and format of input:
     ntx     =       5, irest   =       1, ntrx    =       1

Nature and format of output:
     ntxo    =       1, ntpr    =   10000, ntrx    =       1, ntwr    =   50000
     iwrap   =       1, ntwx    =   10000, ntwv    =       0, ntwe    =   10000
     ioutfm  =       1, ntwprt  =       0, idecomp =       0, rbornstat=      0

Potential function:
     ntf     =       1, ntb     =       2, igb     =       0, nsnb    =      25
     ipol    =       0, gbsa    =       0, iesp    =       0
     dielc   =   1.00000, cut     =   8.00000, intdiel =   1.00000

Frozen or restrained atoms:
     ibelly  =       0, ntr     =       0

Molecular dynamics:
     nstlim  =    500000, nscm    =      1000, nrespa  =         1
     t       =   0.00000, dt      =   0.00100, vlimit  =  20.00000

Langevin dynamics temperature regulation:
     ig      =  580259
     temp0   = 298.00000, tempi   =   0.00000, gamma_ln=   2.00000

Pressure regulation:
     ntp     =       1
     pres0   =   1.01325, comp    =  44.60000, taup    =   2.00000

SHAKE:
     ntc     =       2, jfastw  =       0
     tol     =   0.00001

Free energy options:
     icfe    =       1, ifsc    =       0, klambda =       1
     clambda =  0.5000, scalpha =  0.5000, scbeta  = 12.0000
     sceeorder =       2
     dynlmb =  0.0000 logdvdl =       1

FEP MBAR options:
     ifmbar  =       1,  bar_intervall =     1000
     bar_l_min =0.0000,  bar_l_max =1.0000,  bar_l_incr =0.1000

Ewald parameters:
     verbose =       0, ew_type =       0, nbflag  =       1, use_pme =       1
     vdwmeth =       1, eedmeth =       1, netfrc  =       1
     Box X =   28.100   Box Y =   27.720   Box Z =   27.340
     Alpha =   90.000   Beta  =   90.000   Gamma =   90.000
     NFFT1 =   30       NFFT2 =   30       NFFT3 =   30
     Cutoff=    8.000   Tol   =0.100E-04
     Ewald Coefficient =  0.34864
     Interpolation order =    4

     TI Mask 1 :1; matches      6 atoms
     TI Mask 2 :2; matches      6 atoms
     TI region 1:    2115 atoms
     TI region 2:    2115 atoms

    MBAR - lambda values considered:
      11 total:  0.0000 0.1000 0.2000 0.3000 0.4000 0.5000 0.6000 0.7000 0.8000 0.9000 1.0000
    Extra energies will be computed    500 times.
     Checking for mismatched coordinates.
 Noshake mask :1,2; matches      12 atoms.

--------------------------------------------------------------------------------
   3.  ATOMIC COORDINATES AND VELOCITIES
--------------------------------------------------------------------------------

L0
 begin time read from input coords =   500.000 ps

 Number of triangulated 3-point waters found:      703
   Removing shake constraints from O2    L0    1 -- H6    L0    1
   Removing shake constraints from C1    L0    1 -- H3    L0    1
   Removing shake constraints from C1    L0    1 -- H4    L0    1
   Removing shake constraints from C1    L0    1 -- H5    L0    1
   Removing shake constraints from O2    INT   2 -- H6    INT   2
   Removing shake constraints from C1    INT   2 -- H3    INT   2
   Removing shake constraints from C1    INT   2 -- H4    INT   2
   Removing shake constraints from C1    INT   2 -- H5    INT   2
 Number of shake restraints removed:        8

     Sum of charges for TI region  1 =   0.00000000
     Forcing neutrality...

     Sum of charges for TI region  2 =   0.00000000
     Forcing neutrality...

--------------------------------------------------------------------------------
   4.  RESULTS
 NSTEP =    10000   TIME(PS) =     510.000  TEMP(K) =   297.12  PRESS =  -312.6
 Etot   =     -5442.0518  EKtot   =      1251.7043  EPtot      =     -6693.7561
 BOND   =         1.1238  ANGLE   =         1.8331  DIHED      =         0.4951
 1-4 NB =         0.0000  1-4 EEL =         1.7976  VDWAALS    =       962.2747
 EELEC  =     -7661.2804  EHBOND  =         0.0000  RESTRAINT  =         0.0000
 EKCMT  =       610.6356  VIRIAL  =       755.1215  VOLUME     =     21405.0678
                                                    Density    =         0.9850
 DV/DL  =        -0.6123
 Ewald error estimate:   0.2195E-03
 ------------------------------------------------------------------------------

      A V E R A G E S   O V E R   50000 S T E P S

 NSTEP =    50000   TIME(PS) =     550.000  TEMP(K) =   297.62  PRESS =     4.6
 Etot   =     -5483.0175  EKtot   =      1253.8386  EPtot      =     -6736.8561
 BOND   =         1.6307  ANGLE   =         1.8461  DIHED      =         0.3179
 1-4 NB =         0.0000  1-4 EEL =         1.9121  VDWAALS    =      1011.3077
 EELEC  =     -7753.8704  EHBOND  =         0.0000  RESTRAINT  =         0.0000
 EKCMT  =       624.7309  VIRIAL  =       622.6221  VOLUME     =     21392.9385
                                                    Density    =         0.9856
 DV/DL  =         0.5039
 Ewald error estimate:   0.2052E-03
 ------------------------------------------------------------------------------

      R M S  F L U C T U A T I O N S

 NSTEP =    50000   TIME(PS) =     550.000  TEMP(K) =     6.62  PRESS =   385.8
 Etot   =        50.6107  EKtot   =        27.8706  EPtot      =        40.1721
 BOND   =         0.9835  ANGLE   =         1.0089  DIHED      =         0.3160
 1-4 NB =         0.0000  1-4 EEL =         0.0573  VDWAALS    =        38.5252
 EELEC  =        63.8347  EHBOND  =         0.0000  RESTRAINT  =         0.0000
 EKCMT  =        19.6719  VIRIAL  =       178.1922  VOLUME     =        77.8876
                                                    Density    =         0.0036
 DV/DL  =         2.8654
 Ewald error estimate:   0.1553E-03
 ------------------------------------------------------------------------------

      A V E R A G E S   O V E R   50000 S T E P S

 NSTEP =    50000   TIME(PS) =     550.000  TEMP(K) =   297.62  PRESS =     4.6
 Etot   =     -5483.0175  EKtot   =      1253.8386  EPtot      =     -6736.8561
 BOND   =         1.6307  ANGLE   =         1.8461  DIHED      =         0.3179
 1-4 NB =         0.0000  1-4 EEL =         1.9121  VDWAALS    =      1011.3077
 EELEC  =     -7753.8704  EHBOND  =         0.0000  RESTRAINT  =         0.0000
 EKCMT  =       624.7309  VIRIAL  =       622.6221  VOLUME     =     21392.9385
                                                    Density    =         0.9856
 DV/DL  =         0.5039
 Ewald error estimate:   0.2052E-03
 ------------------------------------------------------------------------------

      R M S  F L U C T U A T I O N S

 NSTEP =    50000   TIME(PS) =     550.000  TEMP(K) =     6.62  PRESS =   385.8
 Etot   =        50.6107  EKtot   =        27.8706  EPtot      =        40.1721
 BOND   =         0.9835  ANGLE   =         1.0089  DIHED      =         0.3160
 1-4 NB =         0.0000  1-4 EEL =         0.0573  VDWAALS    =        38.5252
 EELEC  =        63.8347  EHBOND  =         0.0000  RESTRAINT  =         0.0000
 EKCMT  =        19.6719  VIRIAL  =       178.1922  VOLUME     =        77.8876
                                                    Density    =         0.0036
 DV/DL  =         2.8654
 Ewald error estimate:   0.1553E-03
 ------------------------------------------------------------------------------

      DV/DL, AVERAGES OVER   50000 STEPS

 NSTEP =    50000   TIME(PS) =     550.000  TEMP(K) =     6.62  PRESS =     0.0
 Etot   =         0.0000  EKtot   =         0.0000  EPtot      =         0.5039
 BOND   =         0.0000  ANGLE   =         0.0000  DIHED      =         0.0000
 1-4 NB =         0.0000  1-4 EEL =        -3.8241  VDWAALS    =         0.0000
 EELEC  =         4.3280  EHBOND  =         0.0000  RESTRAINT  =         0.0000
 EKCMT  =         0.0000  VIRIAL  =         0.0000  VOLUME     =         0.0000
                                                    Density    =         0.0000
 DV/DL  =         0.5039
 Ewald error estimate:   0.0000E+00
 ------------------------------------------------------------------------------

      A V E R A G E S   O V E R   50000 S T E P S

 NSTEP =   100000   TIME(PS) =     600.000  TEMP(K) =   298.52  PRESS =     1.2
 Etot   =     -5465.3193  EKtot   =      1257.6174  EPtot      =     -6722.9367
 BOND   =         1.5652  ANGLE   =         1.7296  DIHED      =         0.2999
 1-4 NB =         0.0000  1-4 EEL =         1.9107  VDWAALS    =      1007.6156
 EELEC  =     -7736.0577  EHBOND  =         0.0000  RESTRAINT  =         0.0000
 EKCMT  =       628.3012  VIRIAL  =       627.7292  VOLUME     =     21443.4172
                                                    Density    =         0.9833
 DV/DL  =         0.5148
 Ewald error estimate:   0.2037E-03
 ------------------------------------------------------------------------------

      R M S  F L U C T U A T I O N S

 NSTEP =   100000   TIME(PS) =     600.000  TEMP(K) =     6.43  PRESS =   380.8
 Etot   =        46.6120  EKtot   =        27.1000  EPtot      =        37.9861
 BOND   =         1.0543  ANGLE   =         0.9759  DIHED      =         0.3034
 1-4 NB =         0.0000  1-4 EEL =         0.0575  VDWAALS    =        37.1143
 EELEC  =        59.1800  EHBOND  =         0.0000  RESTRAINT  =         0.0000
 EKCMT  =        19.4122  VIRIAL  =       175.7696  VOLUME     =        74.7265
                                                    Density    =         0.0034
 DV/DL  =         2.7302
 Ewald error estimate:   0.1533E-03
 ------------------------------------------------------------------------------

      A V E R A G E S   O V E R   50000 S T E P S

 NSTEP =   100000   TIME(PS) =     600.000  TEMP(K) =   298.52  PRESS =     1.2
 Etot   =     -5465.3193  EKtot   =      1257.6174  EPtot      =     -6722.9367
 BOND   =         1.5652  ANGLE   =         1.7296  DIHED      =         0.2999
 1-4 NB =         0.0000  1-4 EEL =         1.9107  VDWAALS    =      1007.6156
 EELEC  =     -7736.0577  EHBOND  =         0.0000  RESTRAINT  =         0.0000
 EKCMT  =       628.3012  VIRIAL  =       627.7292  VOLUME     =     21443.4172
                                                    Density    =         0.9833
 DV/DL  =         0.5148
 Ewald error estimate:   0.2037E-03
 ------------------------------------------------------------------------------

      R M S  F L U C T U A T I O N S

 NSTEP =   100000   TIME(PS) =     600.000  TEMP(K) =     6.43  PRESS =   380.8
 Etot   =        46.6120  EKtot   =        27.1000  EPtot      =        37.9861
 BOND   =         1.0543  ANGLE   =         0.9759  DIHED      =         0.3034
 1-4 NB =         0.0000  1-4 EEL =         0.0575  VDWAALS    =        37.1143
 EELEC  =        59.1800  EHBOND  =         0.0000  RESTRAINT  =         0.0000
 EKCMT  =        19.4122  VIRIAL  =       175.7696  VOLUME     =        74.7265
                                                    Density    =         0.0034
 DV/DL  =         2.7302
 Ewald error estimate:   0.1533E-03
 ------------------------------------------------------------------------------

      DV/DL, AVERAGES OVER   50000 STEPS

 NSTEP =   100000   TIME(PS) =     600.000  TEMP(K) =     6.43  PRESS =     0.0
 Etot   =         0.0000  EKtot   =         0.0000  EPtot      =         0.5148
 BOND   =         0.0000  ANGLE   =         0.0000  DIHED      =         0.0000
 1-4 NB =         0.0000  1-4 EEL =        -3.8213  VDWAALS    =         0.0000
 EELEC  =         4.3361  EHBOND  =         0.0000  RESTRAINT  =         0.0000
 EKCMT  =         0.0000  VIRIAL  =         0.0000  VOLUME     =         0.0000
                                                    Density    =         0.0000
 DV/DL  =         0.5148
 Ewald error estimate:   0.0000E+00
 ------------------------------------------------------------------------------

      A V E R A G E S   O V E R   50000 S T E P S

 NSTEP =   500000   TIME(PS) =    1000.000  TEMP(K) =   298.82  PRESS =     3.4
 Etot   =     -5471.7353  EKtot   =      1258.8701  EPtot      =     -6730.6053
 BOND   =         1.5687  ANGLE   =         1.7493  DIHED      =         0.3091
 1-4 NB =         0.0000  1-4 EEL =         1.9106  VDWAALS    =      1008.0845
 EELEC  =     -7744.2275  EHBOND  =         0.0000  RESTRAINT  =         0.0000
 EKCMT  =       629.3772  VIRIAL  =       627.8236  VOLUME     =     21412.2324
                                                    Density    =         0.9847
 DV/DL  =         0.5673
 Ewald error estimate:   0.2032E-03
 ------------------------------------------------------------------------------

      R M S  F L U C T U A T I O N S

 NSTEP =   500000   TIME(PS) =    1000.000  TEMP(K) =     6.62  PRESS =   389.8
 Etot   =        48.5782  EKtot   =        27.8987  EPtot      =        38.5459
 BOND   =         1.0118  ANGLE   =         1.0517  DIHED      =         0.3067
 1-4 NB =         0.0000  1-4 EEL =         0.0551  VDWAALS    =        38.6697
 EELEC  =        62.0461  EHBOND  =         0.0000  RESTRAINT  =         0.0000
 EKCMT  =        19.6653  VIRIAL  =       181.1115  VOLUME     =        80.6631
                                                    Density    =         0.0037
 DV/DL  =         2.6414
 Ewald error estimate:   0.1519E-03
 ------------------------------------------------------------------------------

      A V E R A G E S   O V E R   50000 S T E P S

 NSTEP =   500000   TIME(PS) =    1000.000  TEMP(K) =   298.82  PRESS =     3.4
 Etot   =     -5471.7353  EKtot   =      1258.8701  EPtot      =     -6730.6053
 BOND   =         1.5687  ANGLE   =         1.7493  DIHED      =         0.3091
 1-4 NB =         0.0000  1-4 EEL =         1.9106  VDWAALS    =      1008.0845
 EELEC  =     -7744.2275  EHBOND  =         0.0000  RESTRAINT  =         0.0000
 EKCMT  =       629.3772  VIRIAL  =       627.8236  VOLUME     =     21412.2324
                                                    Density    =         0.9847
 DV/DL  =         0.5673
 Ewald error estimate:   0.2032E-03
 ------------------------------------------------------------------------------

      R M S  F L U C T U A T I O N S

 NSTEP =   500000   TIME(PS) =    1000.000  TEMP(K) =     6.62  PRESS =   389.8
 Etot   =        48.5782  EKtot   =        27.8987  EPtot      =        38.5459
 BOND   =         1.0118  ANGLE   =         1.0517  DIHED      =         0.3067
 1-4 NB =         0.0000  1-4 EEL =         0.0551  VDWAALS    =        38.6697
 EELEC  =        62.0461  EHBOND  =         0.0000  RESTRAINT  =         0.0000
 EKCMT  =        19.6653  VIRIAL  =       181.1115  VOLUME     =        80.6631
                                                    Density    =         0.0037
 DV/DL  =         2.6414
 Ewald error estimate:   0.1519E-03
 ------------------------------------------------------------------------------

      DV/DL, AVERAGES OVER   50000 STEPS

 NSTEP =   500000   TIME(PS) =    1000.000  TEMP(K) =     6.62  PRESS =     0.0
 Etot   =         0.0000  EKtot   =         0.0000  EPtot      =         0.5673
 BOND   =         0.0000  ANGLE   =         0.0000  DIHED      =         0.0000
 1-4 NB =         0.0000  1-4 EEL =        -3.8213  VDWAALS    =         0.0000
 EELEC  =         4.3886  EHBOND  =         0.0000  RESTRAINT  =         0.0000
 EKCMT  =         0.0000  VIRIAL  =         0.0000  VOLUME     =         0.0000
                                                    Density    =         0.0000
 DV/DL  =         0.5673
 Ewald error estimate:   0.0000E+00
 ------------------------------------------------------------------------------

      A V E R A G E S   O V E R  500000 S T E P S

 NSTEP =   500000   TIME(PS) =    1000.000  TEMP(K) =   297.68  PRESS =     1.5
 Etot   =     -5481.1406  EKtot   =      1254.0651  EPtot      =     -6735.2057
 BOND   =         1.5516  ANGLE   =         1.8147  DIHED      =         0.3106
 1-4 NB =         0.0000  1-4 EEL =         1.9114  VDWAALS    =      1009.5706
 EELEC  =     -7750.3646  EHBOND  =         0.0000  RESTRAINT  =         0.0000
 EKCMT  =       625.8363  VIRIAL  =       625.1498  VOLUME     =     21393.6930
                                                    Density    =         0.9856
 DV/DL  =         0.5092
 Ewald error estimate:   0.2073E-03
 ------------------------------------------------------------------------------

      R M S  F L U C T U A T I O N S

 NSTEP =   500000   TIME(PS) =    1000.000  TEMP(K) =     6.54  PRESS =   385.9
 Etot   =        51.1886  EKtot   =        27.5473  EPtot      =        40.7448
 BOND   =         0.9915  ANGLE   =         1.0532  DIHED      =         0.3080
 1-4 NB =         0.0000  1-4 EEL =         0.0583  VDWAALS    =        38.2055
 EELEC  =        63.1569  EHBOND  =         0.0000  RESTRAINT  =         0.0000
 EKCMT  =        19.3200  VIRIAL  =       178.2763  VOLUME     =        94.4397
                                                    Density    =         0.0044
 DV/DL  =         2.7346
 Ewald error estimate:   0.1562E-03
 ------------------------------------------------------------------------------

      A V E R A G E S   O V E R  500000 S T E P S

 NSTEP =   500000   TIME(PS) =    1000.000  TEMP(K) =   297.68  PRESS =     1.5
 Etot   =     -5481.1406  EKtot   =      1254.0651  EPtot      =     -6735.2057
 BOND   =         1.5516  ANGLE   =         1.8147  DIHED      =         0.3106
 1-4 NB =         0.0000  1-4 EEL =         1.9114  VDWAALS    =      1009.5706
 EELEC  =     -7750.3646  EHBOND  =         0.0000  RESTRAINT  =         0.0000
 EKCMT  =       625.8363  VIRIAL  =       625.1498  VOLUME     =     21393.6930
                                                    Density    =         0.9856
 DV/DL  =         0.5092
 Ewald error estimate:   0.2073E-03
 ------------------------------------------------------------------------------

      R M S  F L U C T U A T I O N S

 NSTEP =   500000   TIME(PS) =    1000.000  TEMP(K) =     6.54  PRESS =   385.9
 Etot   =        51.1886  EKtot   =        27.5473  EPtot      =        40.7448
 BOND   =         0.9915  ANGLE   =         1.0532  DIHED      =         0.3080
 1-4 NB =         0.0000  1-4 EEL =         0.0583  VDWAALS    =        38.2055
 EELEC  =        63.1569  EHBOND  =         0.0000  RESTRAINT  =         0.0000
 EKCMT  =        19.3200  VIRIAL  =       178.2763  VOLUME     =        94.4397
                                                    Density    =         0.0044
 DV/DL  =         2.7346
 Ewald error estimate:   0.1562E-03
 ------------------------------------------------------------------------------

      DV/DL, AVERAGES OVER  500000 STEPS

 NSTEP =   500000   TIME(PS) =    1000.000  TEMP(K) =     6.54  PRESS =     0.0
 Etot   =         0.0000  EKtot   =         0.0000  EPtot      =         0.5092
 BOND   =         0.0000  ANGLE   =         0.0000  DIHED      =         0.0000
 1-4 NB =         0.0000  1-4 EEL =        -3.8228  VDWAALS    =         0.0000
 EELEC  =         4.3320  EHBOND  =         0.0000  RESTRAINT  =         0.0000
 EKCMT  =         0.0000  VIRIAL  =         0.0000  VOLUME     =         0.0000
                                                    Density    =         0.0000
 DV/DL  =         0.5092
 Ewald error estimate:   0.0000E+00
 ------------------------------------------------------------------------------
