-------------------------------------------------------
          Amber 14 SANDER                              2014
          -------------------------------------------------------

  [-O]verwriting output

File Assignments:

 Here is the input file:

MD simulation
 &cntrl
   imin = 0, nstlim = 500000, irest = 1, ntx = 5, dt = 0.001,
   ntt = 3, temp0 = 298.0, gamma_ln = 2.0, ig = -1,
   ntp = 1, pres0 = 1.01325, taup = 2.0,
   ntb = 2,
   ioutfm = 1, iwrap = 1,
   ntwe = 10000, ntwx = 10000, ntpr = 10000, ntwr = 50000, ntave = 50000,

   ntc = 2, ntf = 1,
   noshakemask = ':1,2',

   icfe = 1, ifsc = 0, clambda = 0.5, scalpha = 0.5, scbeta = 12.0,
   logdvdl = 1,
   ifmbar = 1, bar_intervall = 1000, bar_l_min = 0.0, bar_l_max = 1.0,
   bar_l_incr = 0.1,
   timask1 = ':1', timask2 = ':2'
 /
 &ewald
 /

Note: ig = -1. Setting random seed to   188710 based on wallclock time in
      microseconds and disabling the synchronization of random numbers
      between tasks to improve performance.

--------------------------------------------------------------------------------
   1.  RESOURCE   USE:
--------------------------------------------------------------------------------

 getting new box info from bottom of inpcrd
 NATOM  =    2121 NTYPES =       6 NBONH =    2117 MBONA  =       2
 NTHETH =      14 MTHETA =       0 NPHIH =       6 MPHIA  =       0
 NHPARM =       0 NPARM  =       0 NNB   =    2844 NRES   =     705
 NBONA  =       2 NTHETA =       0 NPHIA =       0 NUMBND =       5
 NUMANG =       3 NPTRA  =       1 NATYP =       6 NPHB   =       1
 IFBOX  =       1 NMXRS  =       6 IFCAP =       0 NEXTRA =       0
 NCOPY  =       0

     BOX TYPE: RECTILINEAR

--------------------------------------------------------------------------------
   2.  CONTROL  DATA  FOR  THE  RUN
--------------------------------------------------------------------------------

L0

General flags:
     imin    =       0, nmropt  =       0

Nature and format of input:
     ntx     =       5, irest   =       1, ntrx    =       1

Nature and format of output:
     ntxo    =       1, ntpr    =   10000, ntrx    =       1, ntwr    =   50000
     iwrap   =       1, ntwx    =   10000, ntwv    =       0, ntwe    =   10000
     ioutfm  =       1, ntwprt  =       0, idecomp =       0, rbornstat=      0

Potential function:
     ntf     =       1, ntb     =       2, igb     =       0, nsnb    =      25
     ipol    =       0, gbsa    =       0, iesp    =       0
     dielc   =   1.00000, cut     =   8.00000, intdiel =   1.00000

Frozen or restrained atoms:
     ibelly  =       0, ntr     =       0

Molecular dynamics:
     nstlim  =    500000, nscm    =      1000, nrespa  =         1
     t       =   0.00000, dt      =   0.00100, vlimit  =  20.00000

Langevin dynamics temperature regulation:
     ig      =  188710
     temp0   = 298.00000, tempi   =   0.00000, gamma_ln=   2.00000

Pressure regulation:
     ntp     =       1
     pres0   =   1.01325, comp    =  44.60000, taup    =   2.00000

SHAKE:
     ntc     =       2, jfastw  =       0
     tol     =   0.00001

Free energy options:
     icfe    =       1, ifsc    =       0, klambda =       1
     clambda =  0.5000, scalpha =  0.5000, scbeta  = 12.0000
     sceeorder =       2
     dynlmb =  0.0000 logdvdl =       1

FEP MBAR options:
     ifmbar  =       1,  bar_intervall =     1000
     bar_l_min =0.0000,  bar_l_max =1.0000,  bar_l_incr =0.1000

Ewald parameters:
     verbose =       0, ew_type =       0, nbflag  =       1, use_pme =       1
     vdwmeth =       1, eedmeth =       1, netfrc  =       1
     Box X =   28.150   Box Y =   27.769   Box Z =   27.389
     Alpha =   90.000   Beta  =   90.000   Gamma =   90.000
     NFFT1 =   30       NFFT2 =   30       NFFT3 =   30
     Cutoff=    8.000   Tol   =0.100E-04
     Ewald Coefficient =  0.34864
     Interpolation order =    4

     TI Mask 1 :1; matches      6 atoms
     TI Mask 2 :2; matches      6 atoms
     TI region 1:    2115 atoms
     TI region 2:    2115 atoms

    MBAR - lambda values considered:
      11 total:  0.0000 0.1000 0.2000 0.3000 0.4000 0.5000 0.6000 0.7000 0.8000 0.9000 1.0000
    Extra energies will be computed    500 times.
     Checking for mismatched coordinates.
 Noshake mask :1,2; matches      12 atoms.

--------------------------------------------------------------------------------
   3.  ATOMIC COORDINATES AND VELOCITIES
--------------------------------------------------------------------------------

L0
 begin time read from input coords =  1000.000 ps

 Number of triangulated 3-point waters found:      703
   Removing shake constraints from O2    L0    1 -- H6    L0    1
   Removing shake constraints from C1    L0    1 -- H3    L0    1
   Removing shake constraints from C1    L0    1 -- H4    L0    1
   Removing shake constraints from C1    L0    1 -- H5    L0    1
   Removing shake constraints from O2    INT   2 -- H6    INT   2
   Removing shake constraints from C1    INT   2 -- H3    INT   2
   Removing shake constraints from C1    INT   2 -- H4    INT   2
   Removing shake constraints from C1    INT   2 -- H5    INT   2
 Number of shake restraints removed:        8

     Sum of charges for TI region  1 =   0.00000000
     Forcing neutrality...

     Sum of charges for TI region  2 =   0.00000000
     Forcing neutrality...

--------------------------------------------------------------------------------
   4.  RESULTS
 NSTEP =    10000   TIME(PS) =    1010.000  TEMP(K) =   294.10  PRESS =  -118.3
 Etot   =     -5436.9468  EKtot   =      1239.0126  EPtot      =     -6675.9594
 BOND   =         1.4156  ANGLE   =         0.5130  DIHED      =         0.3131
 1-4 NB =         0.0000  1-4 EEL =         1.8509  VDWAALS    =       963.7963
 EELEC  =     -7643.8484  EHBOND  =         0.0000  RESTRAINT  =         0.0000
 EKCMT  =       601.6975  VIRIAL  =       655.9041  VOLUME     =     21226.7682
                                                    Density    =         0.9933
 DV/DL  =         2.0054
 Ewald error estimate:   0.1391E-03
 ------------------------------------------------------------------------------

      A V E R A G E S   O V E R   50000 S T E P S

 NSTEP =    50000   TIME(PS) =    1050.000  TEMP(K) =   297.10  PRESS =     0.4
 Etot   =     -5487.7444  EKtot   =      1251.6204  EPtot      =     -6739.3648
 BOND   =         1.4698  ANGLE   =         1.8213  DIHED      =         0.3080
 1-4 NB =         0.0000  1-4 EEL =         1.9111  VDWAALS    =      1010.7095
 EELEC  =     -7755.5846  EHBOND  =         0.0000  RESTRAINT  =         0.0000
 EKCMT  =       624.7644  VIRIAL  =       624.5945  VOLUME     =     21378.6387
                                                    Density    =         0.9863
 DV/DL  =         0.2189
 Ewald error estimate:   0.2066E-03
 ------------------------------------------------------------------------------

      R M S  F L U C T U A T I O N S

 NSTEP =    50000   TIME(PS) =    1050.000  TEMP(K) =     6.15  PRESS =   380.7
 Etot   =        43.7868  EKtot   =        25.8964  EPtot      =        35.9524
 BOND   =         0.9641  ANGLE   =         0.9986  DIHED      =         0.3072
 1-4 NB =         0.0000  1-4 EEL =         0.0565  VDWAALS    =        37.8317
 EELEC  =        58.9949  EHBOND  =         0.0000  RESTRAINT  =         0.0000
 EKCMT  =        18.5268  VIRIAL  =       176.2921  VOLUME     =        61.6399
                                                    Density    =         0.0028
 DV/DL  =         2.7134
 Ewald error estimate:   0.1557E-03
 ------------------------------------------------------------------------------

      A V E R A G E S   O V E R   50000 S T E P S

 NSTEP =    50000   TIME(PS) =    1050.000  TEMP(K) =   297.10  PRESS =     0.4
 Etot   =     -5487.7444  EKtot   =      1251.6204  EPtot      =     -6739.3648
 BOND   =         1.4698  ANGLE   =         1.8213  DIHED      =         0.3080
 1-4 NB =         0.0000  1-4 EEL =         1.9111  VDWAALS    =      1010.7095
 EELEC  =     -7755.5846  EHBOND  =         0.0000  RESTRAINT  =         0.0000
 EKCMT  =       624.7644  VIRIAL  =       624.5945  VOLUME     =     21378.6387
                                                    Density    =         0.9863
 DV/DL  =         0.2189
 Ewald error estimate:   0.2066E-03
 ------------------------------------------------------------------------------

      R M S  F L U C T U A T I O N S

 NSTEP =    50000   TIME(PS) =    1050.000  TEMP(K) =     6.15  PRESS =   380.7
 Etot   =        43.7868  EKtot   =        25.8964  EPtot      =        35.9524
 BOND   =         0.9641  ANGLE   =         0.9986  DIHED      =         0.3072
 1-4 NB =         0.0000  1-4 EEL =         0.0565  VDWAALS    =        37.8317
 EELEC  =        58.9949  EHBOND  =         0.0000  RESTRAINT  =         0.0000
 EKCMT  =        18.5268  VIRIAL  =       176.2921  VOLUME     =        61.6399
                                                    Density    =         0.0028
 DV/DL  =         2.7134
 Ewald error estimate:   0.1557E-03
 ------------------------------------------------------------------------------

      DV/DL, AVERAGES OVER   50000 STEPS

 NSTEP =    50000   TIME(PS) =    1050.000  TEMP(K) =     6.15  PRESS =     0.0
 Etot   =         0.0000  EKtot   =         0.0000  EPtot      =         0.2189
 BOND   =         0.0000  ANGLE   =         0.0000  DIHED      =         0.0000
 1-4 NB =         0.0000  1-4 EEL =        -3.8222  VDWAALS    =         0.0000
 EELEC  =         4.0412  EHBOND  =         0.0000  RESTRAINT  =         0.0000
 EKCMT  =         0.0000  VIRIAL  =         0.0000  VOLUME     =         0.0000
                                                    Density    =         0.0000
 DV/DL  =         0.2189
 Ewald error estimate:   0.0000E+00
 ------------------------------------------------------------------------------

      A V E R A G E S   O V E R   50000 S T E P S

 NSTEP =   100000   TIME(PS) =    1100.000  TEMP(K) =   298.26  PRESS =    -1.0
 Etot   =     -5471.0410  EKtot   =      1256.5351  EPtot      =     -6727.5761
 BOND   =         1.6011  ANGLE   =         1.7721  DIHED      =         0.2993
 1-4 NB =         0.0000  1-4 EEL =         1.9106  VDWAALS    =      1006.0750
 EELEC  =     -7739.2343  EHBOND  =         0.0000  RESTRAINT  =         0.0000
 EKCMT  =       627.1273  VIRIAL  =       627.5956  VOLUME     =     21386.6958
                                                    Density    =         0.9859
 DV/DL  =         0.5190
 Ewald error estimate:   0.2133E-03
 ------------------------------------------------------------------------------

      R M S  F L U C T U A T I O N S

 NSTEP =   100000   TIME(PS) =    1100.000  TEMP(K) =     6.04  PRESS =   401.0
 Etot   =        34.9008  EKtot   =        25.4403  EPtot      =        31.8411
 BOND   =         1.0077  ANGLE   =         0.9688  DIHED      =         0.3057
 1-4 NB =         0.0000  1-4 EEL =         0.0589  VDWAALS    =        38.9670
 EELEC  =        54.9564  EHBOND  =         0.0000  RESTRAINT  =         0.0000
 EKCMT  =        19.2547  VIRIAL  =       184.8300  VOLUME     =        77.2666
                                                    Density    =         0.0036
 DV/DL  =         2.6862
 Ewald error estimate:   0.1627E-03
 ------------------------------------------------------------------------------

      A V E R A G E S   O V E R   50000 S T E P S

 NSTEP =   100000   TIME(PS) =    1100.000  TEMP(K) =   298.26  PRESS =    -1.0
 Etot   =     -5471.0410  EKtot   =      1256.5351  EPtot      =     -6727.5761
 BOND   =         1.6011  ANGLE   =         1.7721  DIHED      =         0.2993
 1-4 NB =         0.0000  1-4 EEL =         1.9106  VDWAALS    =      1006.0750
 EELEC  =     -7739.2343  EHBOND  =         0.0000  RESTRAINT  =         0.0000
 EKCMT  =       627.1273  VIRIAL  =       627.5956  VOLUME     =     21386.6958
                                                    Density    =         0.9859
 DV/DL  =         0.5190
 Ewald error estimate:   0.2133E-03
 ------------------------------------------------------------------------------

      R M S  F L U C T U A T I O N S

 NSTEP =   100000   TIME(PS) =    1100.000  TEMP(K) =     6.04  PRESS =   401.0
 Etot   =        34.9008  EKtot   =        25.4403  EPtot      =        31.8411
 BOND   =         1.0077  ANGLE   =         0.9688  DIHED      =         0.3057
 1-4 NB =         0.0000  1-4 EEL =         0.0589  VDWAALS    =        38.9670
 EELEC  =        54.9564  EHBOND  =         0.0000  RESTRAINT  =         0.0000
 EKCMT  =        19.2547  VIRIAL  =       184.8300  VOLUME     =        77.2666
                                                    Density    =         0.0036
 DV/DL  =         2.6862
 Ewald error estimate:   0.1627E-03
 ------------------------------------------------------------------------------

      DV/DL, AVERAGES OVER   50000 STEPS

 NSTEP =   100000   TIME(PS) =    1100.000  TEMP(K) =     6.04  PRESS =     0.0
 Etot   =         0.0000  EKtot   =         0.0000  EPtot      =         0.5190
 BOND   =         0.0000  ANGLE   =         0.0000  DIHED      =         0.0000
 1-4 NB =         0.0000  1-4 EEL =        -3.8212  VDWAALS    =         0.0000
 EELEC  =         4.3402  EHBOND  =         0.0000  RESTRAINT  =         0.0000
 EKCMT  =         0.0000  VIRIAL  =         0.0000  VOLUME     =         0.0000
                                                    Density    =         0.0000
 DV/DL  =         0.5190
 Ewald error estimate:   0.0000E+00
 ------------------------------------------------------------------------------

      A V E R A G E S   O V E R   50000 S T E P S

 NSTEP =   500000   TIME(PS) =    1500.000  TEMP(K) =   297.95  PRESS =     1.5
 Etot   =     -5479.7372  EKtot   =      1255.2331  EPtot      =     -6734.9703
 BOND   =         1.6671  ANGLE   =         1.9915  DIHED      =         0.3041
 1-4 NB =         0.0000  1-4 EEL =         1.9113  VDWAALS    =      1006.8826
 EELEC  =     -7747.7269  EHBOND  =         0.0000  RESTRAINT  =         0.0000
 EKCMT  =       626.7909  VIRIAL  =       626.0797  VOLUME     =     21342.0094
                                                    Density    =         0.9880
 DV/DL  =         0.6432
 Ewald error estimate:   0.2054E-03
 ------------------------------------------------------------------------------

      R M S  F L U C T U A T I O N S

 NSTEP =   500000   TIME(PS) =    1500.000  TEMP(K) =     6.60  PRESS =   389.8
 Etot   =        50.2692  EKtot   =        27.8026  EPtot      =        40.3439
 BOND   =         1.0171  ANGLE   =         1.0855  DIHED      =         0.3047
 1-4 NB =         0.0000  1-4 EEL =         0.0591  VDWAALS    =        38.6329
 EELEC  =        63.5996  EHBOND  =         0.0000  RESTRAINT  =         0.0000
 EKCMT  =        20.2634  VIRIAL  =       178.2916  VOLUME     =        71.6113
                                                    Density    =         0.0033
 DV/DL  =         2.7777
 Ewald error estimate:   0.1571E-03
 ------------------------------------------------------------------------------

      A V E R A G E S   O V E R   50000 S T E P S

 NSTEP =   500000   TIME(PS) =    1500.000  TEMP(K) =   297.95  PRESS =     1.5
 Etot   =     -5479.7372  EKtot   =      1255.2331  EPtot      =     -6734.9703
 BOND   =         1.6671  ANGLE   =         1.9915  DIHED      =         0.3041
 1-4 NB =         0.0000  1-4 EEL =         1.9113  VDWAALS    =      1006.8826
 EELEC  =     -7747.7269  EHBOND  =         0.0000  RESTRAINT  =         0.0000
 EKCMT  =       626.7909  VIRIAL  =       626.0797  VOLUME     =     21342.0094
                                                    Density    =         0.9880
 DV/DL  =         0.6432
 Ewald error estimate:   0.2054E-03
 ------------------------------------------------------------------------------

      R M S  F L U C T U A T I O N S

 NSTEP =   500000   TIME(PS) =    1500.000  TEMP(K) =     6.60  PRESS =   389.8
 Etot   =        50.2692  EKtot   =        27.8026  EPtot      =        40.3439
 BOND   =         1.0171  ANGLE   =         1.0855  DIHED      =         0.3047
 1-4 NB =         0.0000  1-4 EEL =         0.0591  VDWAALS    =        38.6329
 EELEC  =        63.5996  EHBOND  =         0.0000  RESTRAINT  =         0.0000
 EKCMT  =        20.2634  VIRIAL  =       178.2916  VOLUME     =        71.6113
                                                    Density    =         0.0033
 DV/DL  =         2.7777
 Ewald error estimate:   0.1571E-03
 ------------------------------------------------------------------------------

      DV/DL, AVERAGES OVER   50000 STEPS

 NSTEP =   500000   TIME(PS) =    1500.000  TEMP(K) =     6.60  PRESS =     0.0
 Etot   =         0.0000  EKtot   =         0.0000  EPtot      =         0.6432
 BOND   =         0.0000  ANGLE   =         0.0000  DIHED      =         0.0000
 1-4 NB =         0.0000  1-4 EEL =        -3.8227  VDWAALS    =         0.0000
 EELEC  =         4.4659  EHBOND  =         0.0000  RESTRAINT  =         0.0000
 EKCMT  =         0.0000  VIRIAL  =         0.0000  VOLUME     =         0.0000
                                                    Density    =         0.0000
 DV/DL  =         0.6432
 Ewald error estimate:   0.0000E+00
 ------------------------------------------------------------------------------

      A V E R A G E S   O V E R  500000 S T E P S

 NSTEP =   500000   TIME(PS) =    1500.000  TEMP(K) =   297.89  PRESS =     1.3
 Etot   =     -5478.3048  EKtot   =      1254.9483  EPtot      =     -6733.2531
 BOND   =         1.5617  ANGLE   =         1.8277  DIHED      =         0.3056
 1-4 NB =         0.0000  1-4 EEL =         1.9110  VDWAALS    =      1008.5259
 EELEC  =     -7747.3849  EHBOND  =         0.0000  RESTRAINT  =         0.0000
 EKCMT  =       626.4473  VIRIAL  =       625.8653  VOLUME     =     21393.4147
                                                    Density    =         0.9856
 DV/DL  =         0.4291
 Ewald error estimate:   0.2066E-03
 ------------------------------------------------------------------------------

      R M S  F L U C T U A T I O N S

 NSTEP =   500000   TIME(PS) =    1500.000  TEMP(K) =     6.28  PRESS =   389.3
 Etot   =        44.4742  EKtot   =        26.4663  EPtot      =        36.8129
 BOND   =         0.9769  ANGLE   =         1.0315  DIHED      =         0.3065
 1-4 NB =         0.0000  1-4 EEL =         0.0577  VDWAALS    =        38.3820
 EELEC  =        59.6341  EHBOND  =         0.0000  RESTRAINT  =         0.0000
 EKCMT  =        19.1142  VIRIAL  =       179.6882  VOLUME     =        92.3749
                                                    Density    =         0.0042
 DV/DL  =         2.7353
 Ewald error estimate:   0.1565E-03
 ------------------------------------------------------------------------------

      A V E R A G E S   O V E R  500000 S T E P S

 NSTEP =   500000   TIME(PS) =    1500.000  TEMP(K) =   297.89  PRESS =     1.3
 Etot   =     -5478.3048  EKtot   =      1254.9483  EPtot      =     -6733.2531
 BOND   =         1.5617  ANGLE   =         1.8277  DIHED      =         0.3056
 1-4 NB =         0.0000  1-4 EEL =         1.9110  VDWAALS    =      1008.5259
 EELEC  =     -7747.3849  EHBOND  =         0.0000  RESTRAINT  =         0.0000
 EKCMT  =       626.4473  VIRIAL  =       625.8653  VOLUME     =     21393.4147
                                                    Density    =         0.9856
 DV/DL  =         0.4291
 Ewald error estimate:   0.2066E-03
 ------------------------------------------------------------------------------

      R M S  F L U C T U A T I O N S

 NSTEP =   500000   TIME(PS) =    1500.000  TEMP(K) =     6.28  PRESS =   389.3
 Etot   =        44.4742  EKtot   =        26.4663  EPtot      =        36.8129
 BOND   =         0.9769  ANGLE   =         1.0315  DIHED      =         0.3065
 1-4 NB =         0.0000  1-4 EEL =         0.0577  VDWAALS    =        38.3820
 EELEC  =        59.6341  EHBOND  =         0.0000  RESTRAINT  =         0.0000
 EKCMT  =        19.1142  VIRIAL  =       179.6882  VOLUME     =        92.3749
                                                    Density    =         0.0042
 DV/DL  =         2.7353
 Ewald error estimate:   0.1565E-03
 ------------------------------------------------------------------------------

      DV/DL, AVERAGES OVER  500000 STEPS

 NSTEP =   500000   TIME(PS) =    1500.000  TEMP(K) =     6.28  PRESS =     0.0
 Etot   =         0.0000  EKtot   =         0.0000  EPtot      =         0.4291
 BOND   =         0.0000  ANGLE   =         0.0000  DIHED      =         0.0000
 1-4 NB =         0.0000  1-4 EEL =        -3.8219  VDWAALS    =         0.0000
 EELEC  =         4.2510  EHBOND  =         0.0000  RESTRAINT  =         0.0000
 EKCMT  =         0.0000  VIRIAL  =         0.0000  VOLUME     =         0.0000
                                                    Density    =         0.0000
 DV/DL  =         0.4291
 Ewald error estimate:   0.0000E+00
 ------------------------------------------------------------------------------
